
---------- Begin Simulation Statistics ----------
final_tick                                  297796500                       # Number of ticks from beginning of simulation (restored from checkpoints and never reset)
host_inst_rate                                 203285                       # Simulator instruction rate (inst/s)
host_mem_usage                                 695008                       # Number of bytes of host memory used
host_op_rate                                   205721                       # Simulator op (including micro ops) rate (op/s)
host_seconds                                     0.49                       # Real time elapsed on the host
host_tick_rate                              605226176                       # Simulator tick rate (ticks/s)
sim_freq                                 1000000000000                       # Frequency of simulated ticks
sim_insts                                      100000                       # Number of instructions simulated
sim_ops                                        101220                       # Number of ops (including micro ops) simulated
sim_seconds                                  0.000298                       # Number of seconds simulated
sim_ticks                                   297796500                       # Number of ticks simulated
system.cpu.branchPred.BTBCorrect                    0                       # Number of correct BTB predictions (this stat may not work properly.
system.cpu.branchPred.BTBHitPct             78.670159                       # BTB Hit Percentage
system.cpu.branchPred.BTBHits                    5407                       # Number of BTB hits
system.cpu.branchPred.BTBLookups                 6873                       # Number of BTB lookups
system.cpu.branchPred.RASInCorrect                  4                       # Number of incorrect RAS predictions.
system.cpu.branchPred.condIncorrect               495                       # Number of conditional branches incorrect
system.cpu.branchPred.condPredicted              6530                       # Number of conditional branches predicted
system.cpu.branchPred.indirectHits                 19                       # Number of indirect target hits.
system.cpu.branchPred.indirectLookups             118                       # Number of indirect predictor lookups.
system.cpu.branchPred.indirectMisses               99                       # Number of indirect misses.
system.cpu.branchPred.lookups                    7416                       # Number of BP lookups
system.cpu.branchPred.usedRAS                     232                       # Number of times the RAS was used to get a target.
system.cpu.branchPredindirectMispredicted           56                       # Number of mispredicted indirect branches.
system.cpu.committedInsts                      100000                       # Number of instructions committed
system.cpu.committedOps                        101220                       # Number of ops (including micro ops) committed
system.cpu.cpi                               5.955930                       # CPI: cycles per instruction
system.cpu.discardedOps                          1592                       # Number of ops (including micro ops) which were discarded before commit
system.cpu.dtb.accesses                             0                       # DTB accesses
system.cpu.dtb.align_faults                         0                       # Number of TLB faults due to alignment restrictions
system.cpu.dtb.domain_faults                        0                       # Number of TLB faults due to domain restrictions
system.cpu.dtb.flush_entries                        0                       # Number of entries that have been flushed from TLB
system.cpu.dtb.flush_tlb                            0                       # Number of times complete TLB was flushed
system.cpu.dtb.flush_tlb_asid                       0                       # Number of times TLB was flushed by ASID
system.cpu.dtb.flush_tlb_mva                        0                       # Number of times TLB was flushed by MVA
system.cpu.dtb.flush_tlb_mva_asid                   0                       # Number of times TLB was flushed by MVA & ASID
system.cpu.dtb.hits                                 0                       # DTB hits
system.cpu.dtb.inst_accesses                        0                       # ITB inst accesses
system.cpu.dtb.inst_hits                            0                       # ITB inst hits
system.cpu.dtb.inst_misses                          0                       # ITB inst misses
system.cpu.dtb.misses                               0                       # DTB misses
system.cpu.dtb.perms_faults                         0                       # Number of TLB faults due to permissions restrictions
system.cpu.dtb.prefetch_faults                      0                       # Number of TLB faults due to prefetch
system.cpu.dtb.read_accesses                        0                       # DTB read accesses
system.cpu.dtb.read_hits                            0                       # DTB read hits
system.cpu.dtb.read_misses                          0                       # DTB read misses
system.cpu.dtb.stage2_mmu.stage2_tlb.accesses            0                       # DTB accesses
system.cpu.dtb.stage2_mmu.stage2_tlb.align_faults            0                       # Number of TLB faults due to alignment restrictions
system.cpu.dtb.stage2_mmu.stage2_tlb.domain_faults            0                       # Number of TLB faults due to domain restrictions
system.cpu.dtb.stage2_mmu.stage2_tlb.flush_entries            0                       # Number of entries that have been flushed from TLB
system.cpu.dtb.stage2_mmu.stage2_tlb.flush_tlb            0                       # Number of times complete TLB was flushed
system.cpu.dtb.stage2_mmu.stage2_tlb.flush_tlb_asid            0                       # Number of times TLB was flushed by ASID
system.cpu.dtb.stage2_mmu.stage2_tlb.flush_tlb_mva            0                       # Number of times TLB was flushed by MVA
system.cpu.dtb.stage2_mmu.stage2_tlb.flush_tlb_mva_asid            0                       # Number of times TLB was flushed by MVA & ASID
system.cpu.dtb.stage2_mmu.stage2_tlb.hits            0                       # DTB hits
system.cpu.dtb.stage2_mmu.stage2_tlb.inst_accesses            0                       # ITB inst accesses
system.cpu.dtb.stage2_mmu.stage2_tlb.inst_hits            0                       # ITB inst hits
system.cpu.dtb.stage2_mmu.stage2_tlb.inst_misses            0                       # ITB inst misses
system.cpu.dtb.stage2_mmu.stage2_tlb.misses            0                       # DTB misses
system.cpu.dtb.stage2_mmu.stage2_tlb.perms_faults            0                       # Number of TLB faults due to permissions restrictions
system.cpu.dtb.stage2_mmu.stage2_tlb.prefetch_faults            0                       # Number of TLB faults due to prefetch
system.cpu.dtb.stage2_mmu.stage2_tlb.read_accesses            0                       # DTB read accesses
system.cpu.dtb.stage2_mmu.stage2_tlb.read_hits            0                       # DTB read hits
system.cpu.dtb.stage2_mmu.stage2_tlb.read_misses            0                       # DTB read misses
system.cpu.dtb.stage2_mmu.stage2_tlb.walker.walkRequestOrigin_Requested::Data            0                       # Table walker requests started/completed, data/inst
system.cpu.dtb.stage2_mmu.stage2_tlb.walker.walkRequestOrigin_Requested::Inst            0                       # Table walker requests started/completed, data/inst
system.cpu.dtb.stage2_mmu.stage2_tlb.walker.walkRequestOrigin_Requested::total            0                       # Table walker requests started/completed, data/inst
system.cpu.dtb.stage2_mmu.stage2_tlb.walker.walkRequestOrigin_Completed::Data            0                       # Table walker requests started/completed, data/inst
system.cpu.dtb.stage2_mmu.stage2_tlb.walker.walkRequestOrigin_Completed::Inst            0                       # Table walker requests started/completed, data/inst
system.cpu.dtb.stage2_mmu.stage2_tlb.walker.walkRequestOrigin_Completed::total            0                       # Table walker requests started/completed, data/inst
system.cpu.dtb.stage2_mmu.stage2_tlb.walker.walkRequestOrigin::total            0                       # Table walker requests started/completed, data/inst
system.cpu.dtb.stage2_mmu.stage2_tlb.walker.walks            0                       # Table walker walks requested
system.cpu.dtb.stage2_mmu.stage2_tlb.write_accesses            0                       # DTB write accesses
system.cpu.dtb.stage2_mmu.stage2_tlb.write_hits            0                       # DTB write hits
system.cpu.dtb.stage2_mmu.stage2_tlb.write_misses            0                       # DTB write misses
system.cpu.dtb.walker.walkRequestOrigin_Requested::Data            0                       # Table walker requests started/completed, data/inst
system.cpu.dtb.walker.walkRequestOrigin_Requested::Inst            0                       # Table walker requests started/completed, data/inst
system.cpu.dtb.walker.walkRequestOrigin_Requested::total            0                       # Table walker requests started/completed, data/inst
system.cpu.dtb.walker.walkRequestOrigin_Completed::Data            0                       # Table walker requests started/completed, data/inst
system.cpu.dtb.walker.walkRequestOrigin_Completed::Inst            0                       # Table walker requests started/completed, data/inst
system.cpu.dtb.walker.walkRequestOrigin_Completed::total            0                       # Table walker requests started/completed, data/inst
system.cpu.dtb.walker.walkRequestOrigin::total            0                       # Table walker requests started/completed, data/inst
system.cpu.dtb.walker.walks                         0                       # Table walker walks requested
system.cpu.dtb.write_accesses                       0                       # DTB write accesses
system.cpu.dtb.write_hits                           0                       # DTB write hits
system.cpu.dtb.write_misses                         0                       # DTB write misses
system.cpu.fetch2.amo_instructions                  0                       # Number of memory atomic instructions successfully decoded
system.cpu.fetch2.fp_instructions                   0                       # Number of floating point instructions successfully decoded
system.cpu.fetch2.int_instructions              46815                       # Number of integer instructions successfully decoded
system.cpu.fetch2.load_instructions             40505                       # Number of memory load instructions successfully decoded
system.cpu.fetch2.store_instructions            10771                       # Number of memory store instructions successfully decoded
system.cpu.fetch2.vec_instructions                  0                       # Number of SIMD instructions successfully decoded
system.cpu.idleCycles                          461987                       # Total number of cycles that the object has spent stopped
system.cpu.ipc                               0.167900                       # IPC: instructions per cycle
system.cpu.itb.accesses                             0                       # DTB accesses
system.cpu.itb.align_faults                         0                       # Number of TLB faults due to alignment restrictions
system.cpu.itb.domain_faults                        0                       # Number of TLB faults due to domain restrictions
system.cpu.itb.flush_entries                        0                       # Number of entries that have been flushed from TLB
system.cpu.itb.flush_tlb                            0                       # Number of times complete TLB was flushed
system.cpu.itb.flush_tlb_asid                       0                       # Number of times TLB was flushed by ASID
system.cpu.itb.flush_tlb_mva                        0                       # Number of times TLB was flushed by MVA
system.cpu.itb.flush_tlb_mva_asid                   0                       # Number of times TLB was flushed by MVA & ASID
system.cpu.itb.hits                                 0                       # DTB hits
system.cpu.itb.inst_accesses                        0                       # ITB inst accesses
system.cpu.itb.inst_hits                            0                       # ITB inst hits
system.cpu.itb.inst_misses                          0                       # ITB inst misses
system.cpu.itb.misses                               0                       # DTB misses
system.cpu.itb.perms_faults                         0                       # Number of TLB faults due to permissions restrictions
system.cpu.itb.prefetch_faults                      0                       # Number of TLB faults due to prefetch
system.cpu.itb.read_accesses                        0                       # DTB read accesses
system.cpu.itb.read_hits                            0                       # DTB read hits
system.cpu.itb.read_misses                          0                       # DTB read misses
system.cpu.itb.stage2_mmu.stage2_tlb.accesses            0                       # DTB accesses
system.cpu.itb.stage2_mmu.stage2_tlb.align_faults            0                       # Number of TLB faults due to alignment restrictions
system.cpu.itb.stage2_mmu.stage2_tlb.domain_faults            0                       # Number of TLB faults due to domain restrictions
system.cpu.itb.stage2_mmu.stage2_tlb.flush_entries            0                       # Number of entries that have been flushed from TLB
system.cpu.itb.stage2_mmu.stage2_tlb.flush_tlb            0                       # Number of times complete TLB was flushed
system.cpu.itb.stage2_mmu.stage2_tlb.flush_tlb_asid            0                       # Number of times TLB was flushed by ASID
system.cpu.itb.stage2_mmu.stage2_tlb.flush_tlb_mva            0                       # Number of times TLB was flushed by MVA
system.cpu.itb.stage2_mmu.stage2_tlb.flush_tlb_mva_asid            0                       # Number of times TLB was flushed by MVA & ASID
system.cpu.itb.stage2_mmu.stage2_tlb.hits            0                       # DTB hits
system.cpu.itb.stage2_mmu.stage2_tlb.inst_accesses            0                       # ITB inst accesses
system.cpu.itb.stage2_mmu.stage2_tlb.inst_hits            0                       # ITB inst hits
system.cpu.itb.stage2_mmu.stage2_tlb.inst_misses            0                       # ITB inst misses
system.cpu.itb.stage2_mmu.stage2_tlb.misses            0                       # DTB misses
system.cpu.itb.stage2_mmu.stage2_tlb.perms_faults            0                       # Number of TLB faults due to permissions restrictions
system.cpu.itb.stage2_mmu.stage2_tlb.prefetch_faults            0                       # Number of TLB faults due to prefetch
system.cpu.itb.stage2_mmu.stage2_tlb.read_accesses            0                       # DTB read accesses
system.cpu.itb.stage2_mmu.stage2_tlb.read_hits            0                       # DTB read hits
system.cpu.itb.stage2_mmu.stage2_tlb.read_misses            0                       # DTB read misses
system.cpu.itb.stage2_mmu.stage2_tlb.walker.walkRequestOrigin_Requested::Data            0                       # Table walker requests started/completed, data/inst
system.cpu.itb.stage2_mmu.stage2_tlb.walker.walkRequestOrigin_Requested::Inst            0                       # Table walker requests started/completed, data/inst
system.cpu.itb.stage2_mmu.stage2_tlb.walker.walkRequestOrigin_Requested::total            0                       # Table walker requests started/completed, data/inst
system.cpu.itb.stage2_mmu.stage2_tlb.walker.walkRequestOrigin_Completed::Data            0                       # Table walker requests started/completed, data/inst
system.cpu.itb.stage2_mmu.stage2_tlb.walker.walkRequestOrigin_Completed::Inst            0                       # Table walker requests started/completed, data/inst
system.cpu.itb.stage2_mmu.stage2_tlb.walker.walkRequestOrigin_Completed::total            0                       # Table walker requests started/completed, data/inst
system.cpu.itb.stage2_mmu.stage2_tlb.walker.walkRequestOrigin::total            0                       # Table walker requests started/completed, data/inst
system.cpu.itb.stage2_mmu.stage2_tlb.walker.walks            0                       # Table walker walks requested
system.cpu.itb.stage2_mmu.stage2_tlb.write_accesses            0                       # DTB write accesses
system.cpu.itb.stage2_mmu.stage2_tlb.write_hits            0                       # DTB write hits
system.cpu.itb.stage2_mmu.stage2_tlb.write_misses            0                       # DTB write misses
system.cpu.itb.walker.walkRequestOrigin_Requested::Data            0                       # Table walker requests started/completed, data/inst
system.cpu.itb.walker.walkRequestOrigin_Requested::Inst            0                       # Table walker requests started/completed, data/inst
system.cpu.itb.walker.walkRequestOrigin_Requested::total            0                       # Table walker requests started/completed, data/inst
system.cpu.itb.walker.walkRequestOrigin_Completed::Data            0                       # Table walker requests started/completed, data/inst
system.cpu.itb.walker.walkRequestOrigin_Completed::Inst            0                       # Table walker requests started/completed, data/inst
system.cpu.itb.walker.walkRequestOrigin_Completed::total            0                       # Table walker requests started/completed, data/inst
system.cpu.itb.walker.walkRequestOrigin::total            0                       # Table walker requests started/completed, data/inst
system.cpu.itb.walker.walks                         0                       # Table walker walks requested
system.cpu.itb.write_accesses                       0                       # DTB write accesses
system.cpu.itb.write_hits                           0                       # DTB write hits
system.cpu.itb.write_misses                         0                       # DTB write misses
system.cpu.numCycles                           595593                       # number of cpu cycles simulated
system.cpu.numFetchSuspends                         0                       # Number of times Execute suspended instruction fetching
system.cpu.numWorkItemsCompleted                    0                       # number of work items this cpu completed
system.cpu.numWorkItemsStarted                      0                       # number of work items this cpu started
system.cpu.op_class_0::No_OpClass                   0      0.00%      0.00% # Class of committed instruction
system.cpu.op_class_0::IntAlu                   50032     49.43%     49.43% # Class of committed instruction
system.cpu.op_class_0::IntMult                     47      0.05%     49.48% # Class of committed instruction
system.cpu.op_class_0::IntDiv                       0      0.00%     49.48% # Class of committed instruction
system.cpu.op_class_0::FloatAdd                     0      0.00%     49.48% # Class of committed instruction
system.cpu.op_class_0::FloatCmp                     0      0.00%     49.48% # Class of committed instruction
system.cpu.op_class_0::FloatCvt                     0      0.00%     49.48% # Class of committed instruction
system.cpu.op_class_0::FloatMult                    0      0.00%     49.48% # Class of committed instruction
system.cpu.op_class_0::FloatMultAcc                 0      0.00%     49.48% # Class of committed instruction
system.cpu.op_class_0::FloatDiv                     0      0.00%     49.48% # Class of committed instruction
system.cpu.op_class_0::FloatMisc                    0      0.00%     49.48% # Class of committed instruction
system.cpu.op_class_0::FloatSqrt                    0      0.00%     49.48% # Class of committed instruction
system.cpu.op_class_0::SimdAdd                      0      0.00%     49.48% # Class of committed instruction
system.cpu.op_class_0::SimdAddAcc                   0      0.00%     49.48% # Class of committed instruction
system.cpu.op_class_0::SimdAlu                      0      0.00%     49.48% # Class of committed instruction
system.cpu.op_class_0::SimdCmp                      0      0.00%     49.48% # Class of committed instruction
system.cpu.op_class_0::SimdCvt                      0      0.00%     49.48% # Class of committed instruction
system.cpu.op_class_0::SimdMisc                     0      0.00%     49.48% # Class of committed instruction
system.cpu.op_class_0::SimdMult                     0      0.00%     49.48% # Class of committed instruction
system.cpu.op_class_0::SimdMultAcc                  0      0.00%     49.48% # Class of committed instruction
system.cpu.op_class_0::SimdShift                    0      0.00%     49.48% # Class of committed instruction
system.cpu.op_class_0::SimdShiftAcc                 0      0.00%     49.48% # Class of committed instruction
system.cpu.op_class_0::SimdDiv                      0      0.00%     49.48% # Class of committed instruction
system.cpu.op_class_0::SimdSqrt                     0      0.00%     49.48% # Class of committed instruction
system.cpu.op_class_0::SimdFloatAdd                 0      0.00%     49.48% # Class of committed instruction
system.cpu.op_class_0::SimdFloatAlu                 0      0.00%     49.48% # Class of committed instruction
system.cpu.op_class_0::SimdFloatCmp                 0      0.00%     49.48% # Class of committed instruction
system.cpu.op_class_0::SimdFloatCvt                 0      0.00%     49.48% # Class of committed instruction
system.cpu.op_class_0::SimdFloatDiv                 0      0.00%     49.48% # Class of committed instruction
system.cpu.op_class_0::SimdFloatMisc               17      0.02%     49.49% # Class of committed instruction
system.cpu.op_class_0::SimdFloatMult                0      0.00%     49.49% # Class of committed instruction
system.cpu.op_class_0::SimdFloatMultAcc             0      0.00%     49.49% # Class of committed instruction
system.cpu.op_class_0::SimdFloatSqrt                0      0.00%     49.49% # Class of committed instruction
system.cpu.op_class_0::SimdReduceAdd                0      0.00%     49.49% # Class of committed instruction
system.cpu.op_class_0::SimdReduceAlu                0      0.00%     49.49% # Class of committed instruction
system.cpu.op_class_0::SimdReduceCmp                0      0.00%     49.49% # Class of committed instruction
system.cpu.op_class_0::SimdFloatReduceAdd            0      0.00%     49.49% # Class of committed instruction
system.cpu.op_class_0::SimdFloatReduceCmp            0      0.00%     49.49% # Class of committed instruction
system.cpu.op_class_0::SimdAes                      0      0.00%     49.49% # Class of committed instruction
system.cpu.op_class_0::SimdAesMix                   0      0.00%     49.49% # Class of committed instruction
system.cpu.op_class_0::SimdSha1Hash                 0      0.00%     49.49% # Class of committed instruction
system.cpu.op_class_0::SimdSha1Hash2                0      0.00%     49.49% # Class of committed instruction
system.cpu.op_class_0::SimdSha256Hash               0      0.00%     49.49% # Class of committed instruction
system.cpu.op_class_0::SimdSha256Hash2              0      0.00%     49.49% # Class of committed instruction
system.cpu.op_class_0::SimdShaSigma2                0      0.00%     49.49% # Class of committed instruction
system.cpu.op_class_0::SimdShaSigma3                0      0.00%     49.49% # Class of committed instruction
system.cpu.op_class_0::SimdPredAlu                  0      0.00%     49.49% # Class of committed instruction
system.cpu.op_class_0::MemRead                  39972     39.49%     88.98% # Class of committed instruction
system.cpu.op_class_0::MemWrite                 11152     11.02%    100.00% # Class of committed instruction
system.cpu.op_class_0::FloatMemRead                 0      0.00%    100.00% # Class of committed instruction
system.cpu.op_class_0::FloatMemWrite                0      0.00%    100.00% # Class of committed instruction
system.cpu.op_class_0::IprAccess                    0      0.00%    100.00% # Class of committed instruction
system.cpu.op_class_0::InstPrefetch                 0      0.00%    100.00% # Class of committed instruction
system.cpu.op_class_0::total                   101220                       # Class of committed instruction
system.cpu.tickCycles                          133606                       # Number of cycles that the object actually ticked
system.cpu.workload.numSyscalls                    10                       # Number of system calls
system.membus.snoop_filter.hit_multi_requests            0                       # Number of requests hitting in the snoop filter with multiple (>1) holders of the requested data.
system.membus.snoop_filter.hit_multi_snoops            0                       # Number of snoops hitting in the snoop filter with multiple (>1) holders of the requested data.
system.membus.snoop_filter.hit_single_requests         4328                       # Number of requests hitting in the snoop filter with a single holder of the requested data.
system.membus.snoop_filter.hit_single_snoops            0                       # Number of snoops hitting in the snoop filter with a single holder of the requested data.
system.membus.snoop_filter.tot_requests          9898                       # Total number of requests made to the snoop filter.
system.membus.snoop_filter.tot_snoops               0                       # Total number of snoops made to the snoop filter.
system.tol2bus.snoop_filter.hit_multi_requests            3                       # Number of requests hitting in the snoop filter with multiple (>1) holders of the requested data.
system.tol2bus.snoop_filter.hit_multi_snoops            0                       # Number of snoops hitting in the snoop filter with multiple (>1) holders of the requested data.
system.tol2bus.snoop_filter.hit_single_requests         4927                       # Number of requests hitting in the snoop filter with a single holder of the requested data.
system.tol2bus.snoop_filter.hit_single_snoops           16                       # Number of snoops hitting in the snoop filter with a single holder of the requested data.
system.tol2bus.snoop_filter.tot_requests        10538                       # Total number of requests made to the snoop filter.
system.tol2bus.snoop_filter.tot_snoops             16                       # Total number of snoops made to the snoop filter.
system.membus.pwrStateResidencyTicks::UNDEFINED    297796500                       # Cumulative time (in ticks) in various power states
system.membus.trans_dist::ReadResp                623                       # Transaction distribution
system.membus.trans_dist::WritebackDirty         4323                       # Transaction distribution
system.membus.trans_dist::CleanEvict                5                       # Transaction distribution
system.membus.trans_dist::ReadExReq              4947                       # Transaction distribution
system.membus.trans_dist::ReadExResp             4947                       # Transaction distribution
system.membus.trans_dist::ReadSharedReq           623                       # Transaction distribution
system.membus.pkt_count_system.l2.mem_side::system.mem_ctrls.port        15468                       # Packet count per connected master and slave (bytes)
system.membus.pkt_count::total                  15468                       # Packet count per connected master and slave (bytes)
system.membus.pkt_size_system.l2.mem_side::system.mem_ctrls.port       316576                       # Cumulative packet size per connected master and slave (bytes)
system.membus.pkt_size::total                  316576                       # Cumulative packet size per connected master and slave (bytes)
system.membus.snoops                                0                       # Total snoops (count)
system.membus.snoopTraffic                          0                       # Total snoop traffic (bytes)
system.membus.snoop_fanout::samples              5570                       # Request fanout histogram
system.membus.snoop_fanout::mean                    0                       # Request fanout histogram
system.membus.snoop_fanout::stdev                   0                       # Request fanout histogram
system.membus.snoop_fanout::underflows              0      0.00%      0.00% # Request fanout histogram
system.membus.snoop_fanout::0                    5570    100.00%    100.00% # Request fanout histogram
system.membus.snoop_fanout::1                       0      0.00%    100.00% # Request fanout histogram
system.membus.snoop_fanout::overflows               0      0.00%    100.00% # Request fanout histogram
system.membus.snoop_fanout::min_value               0                       # Request fanout histogram
system.membus.snoop_fanout::max_value               0                       # Request fanout histogram
system.membus.snoop_fanout::total                5570                       # Request fanout histogram
system.membus.respLayer1.occupancy           18321750                       # Layer occupancy (ticks)
system.membus.respLayer1.utilization              6.2                       # Layer utilization (%)
system.membus.reqLayer0.occupancy            19888500                       # Layer occupancy (ticks)
system.membus.reqLayer0.utilization               6.7                       # Layer utilization (%)
system.tol2bus.pwrStateResidencyTicks::UNDEFINED    297796500                       # Cumulative time (in ticks) in various power states
system.tol2bus.trans_dist::ReadResp               680                       # Transaction distribution
system.tol2bus.trans_dist::WritebackDirty         9130                       # Transaction distribution
system.tol2bus.trans_dist::WritebackClean          102                       # Transaction distribution
system.tol2bus.trans_dist::CleanEvict              24                       # Transaction distribution
system.tol2bus.trans_dist::ReadExReq             4947                       # Transaction distribution
system.tol2bus.trans_dist::ReadExResp            4946                       # Transaction distribution
system.tol2bus.trans_dist::ReadCleanReq           545                       # Transaction distribution
system.tol2bus.trans_dist::ReadSharedReq          135                       # Transaction distribution
system.tol2bus.pkt_count_system.cpu.icache.mem_side::system.l2.cpu_side         1192                       # Packet count per connected master and slave (bytes)
system.tol2bus.pkt_count_system.cpu.dcache.mem_side::system.l2.cpu_side        14972                       # Packet count per connected master and slave (bytes)
system.tol2bus.pkt_count::total                 16164                       # Packet count per connected master and slave (bytes)
system.tol2bus.pkt_size_system.cpu.icache.mem_side::system.l2.cpu_side        20704                       # Cumulative packet size per connected master and slave (bytes)
system.tol2bus.pkt_size_system.cpu.dcache.mem_side::system.l2.cpu_side       316384                       # Cumulative packet size per connected master and slave (bytes)
system.tol2bus.pkt_size::total                 337088                       # Cumulative packet size per connected master and slave (bytes)
system.tol2bus.snoops                            4345                       # Total snoops (count)
system.tol2bus.snoopTraffic                    138368                       # Total snoop traffic (bytes)
system.tol2bus.snoop_fanout::samples             9972                       # Request fanout histogram
system.tol2bus.snoop_fanout::mean            0.003510                       # Request fanout histogram
system.tol2bus.snoop_fanout::stdev           0.059143                       # Request fanout histogram
system.tol2bus.snoop_fanout::underflows             0      0.00%      0.00% # Request fanout histogram
system.tol2bus.snoop_fanout::0                   9937     99.65%     99.65% # Request fanout histogram
system.tol2bus.snoop_fanout::1                     35      0.35%    100.00% # Request fanout histogram
system.tol2bus.snoop_fanout::2                      0      0.00%    100.00% # Request fanout histogram
system.tol2bus.snoop_fanout::overflows              0      0.00%    100.00% # Request fanout histogram
system.tol2bus.snoop_fanout::min_value              0                       # Request fanout histogram
system.tol2bus.snoop_fanout::max_value              1                       # Request fanout histogram
system.tol2bus.snoop_fanout::total               9972                       # Request fanout histogram
system.tol2bus.reqLayer0.occupancy            7723000                       # Layer occupancy (ticks)
system.tol2bus.reqLayer0.utilization              2.6                       # Layer utilization (%)
system.tol2bus.respLayer1.occupancy           5081000                       # Layer occupancy (ticks)
system.tol2bus.respLayer1.utilization             1.7                       # Layer utilization (%)
system.tol2bus.respLayer0.occupancy            545000                       # Layer occupancy (ticks)
system.tol2bus.respLayer0.utilization             0.2                       # Layer utilization (%)
system.voltage_domain.voltage                       1                       # Voltage in Volts
system.clk_domain.clock                          1000                       # Clock period in ticks
system.l2.pwrStateResidencyTicks::UNDEFINED    297796500                       # Cumulative time (in ticks) in various power states
system.l2.demand_hits::.cpu.inst                   44                       # number of demand (read+write) hits
system.l2.demand_hits::.cpu.data                   13                       # number of demand (read+write) hits
system.l2.demand_hits::total                       57                       # number of demand (read+write) hits
system.l2.overall_hits::.cpu.inst                  44                       # number of overall hits
system.l2.overall_hits::.cpu.data                  13                       # number of overall hits
system.l2.overall_hits::total                      57                       # number of overall hits
system.l2.demand_misses::.cpu.inst                501                       # number of demand (read+write) misses
system.l2.demand_misses::.cpu.data               5069                       # number of demand (read+write) misses
system.l2.demand_misses::total                   5570                       # number of demand (read+write) misses
system.l2.overall_misses::.cpu.inst               501                       # number of overall misses
system.l2.overall_misses::.cpu.data              5069                       # number of overall misses
system.l2.overall_misses::total                  5570                       # number of overall misses
system.l2.demand_miss_latency::.cpu.inst     38229500                       # number of demand (read+write) miss cycles
system.l2.demand_miss_latency::.cpu.data    431834500                       # number of demand (read+write) miss cycles
system.l2.demand_miss_latency::total        470064000                       # number of demand (read+write) miss cycles
system.l2.overall_miss_latency::.cpu.inst     38229500                       # number of overall miss cycles
system.l2.overall_miss_latency::.cpu.data    431834500                       # number of overall miss cycles
system.l2.overall_miss_latency::total       470064000                       # number of overall miss cycles
system.l2.demand_accesses::.cpu.inst              545                       # number of demand (read+write) accesses
system.l2.demand_accesses::.cpu.data             5082                       # number of demand (read+write) accesses
system.l2.demand_accesses::total                 5627                       # number of demand (read+write) accesses
system.l2.overall_accesses::.cpu.inst             545                       # number of overall (read+write) accesses
system.l2.overall_accesses::.cpu.data            5082                       # number of overall (read+write) accesses
system.l2.overall_accesses::total                5627                       # number of overall (read+write) accesses
system.l2.demand_miss_rate::.cpu.inst        0.919266                       # miss rate for demand accesses
system.l2.demand_miss_rate::.cpu.data        0.997442                       # miss rate for demand accesses
system.l2.demand_miss_rate::total            0.989870                       # miss rate for demand accesses
system.l2.overall_miss_rate::.cpu.inst       0.919266                       # miss rate for overall accesses
system.l2.overall_miss_rate::.cpu.data       0.997442                       # miss rate for overall accesses
system.l2.overall_miss_rate::total           0.989870                       # miss rate for overall accesses
system.l2.demand_avg_miss_latency::.cpu.inst 76306.387226                       # average overall miss latency
system.l2.demand_avg_miss_latency::.cpu.data 85191.260604                       # average overall miss latency
system.l2.demand_avg_miss_latency::total 84392.100539                       # average overall miss latency
system.l2.overall_avg_miss_latency::.cpu.inst 76306.387226                       # average overall miss latency
system.l2.overall_avg_miss_latency::.cpu.data 85191.260604                       # average overall miss latency
system.l2.overall_avg_miss_latency::total 84392.100539                       # average overall miss latency
system.l2.blocked_cycles::no_mshrs                  0                       # number of cycles access was blocked
system.l2.blocked_cycles::no_targets                0                       # number of cycles access was blocked
system.l2.blocked::no_mshrs                         0                       # number of cycles access was blocked
system.l2.blocked::no_targets                       0                       # number of cycles access was blocked
system.l2.avg_blocked_cycles::no_mshrs            nan                       # average number of cycles each access was blocked
system.l2.avg_blocked_cycles::no_targets          nan                       # average number of cycles each access was blocked
system.l2.writebacks::.writebacks                4324                       # number of writebacks
system.l2.writebacks::total                      4324                       # number of writebacks
system.l2.demand_mshr_misses::.cpu.inst           501                       # number of demand (read+write) MSHR misses
system.l2.demand_mshr_misses::.cpu.data          5069                       # number of demand (read+write) MSHR misses
system.l2.demand_mshr_misses::total              5570                       # number of demand (read+write) MSHR misses
system.l2.overall_mshr_misses::.cpu.inst          501                       # number of overall MSHR misses
system.l2.overall_mshr_misses::.cpu.data         5069                       # number of overall MSHR misses
system.l2.overall_mshr_misses::total             5570                       # number of overall MSHR misses
system.l2.demand_mshr_miss_latency::.cpu.inst     33219500                       # number of demand (read+write) MSHR miss cycles
system.l2.demand_mshr_miss_latency::.cpu.data    381144500                       # number of demand (read+write) MSHR miss cycles
system.l2.demand_mshr_miss_latency::total    414364000                       # number of demand (read+write) MSHR miss cycles
system.l2.overall_mshr_miss_latency::.cpu.inst     33219500                       # number of overall MSHR miss cycles
system.l2.overall_mshr_miss_latency::.cpu.data    381144500                       # number of overall MSHR miss cycles
system.l2.overall_mshr_miss_latency::total    414364000                       # number of overall MSHR miss cycles
system.l2.demand_mshr_miss_rate::.cpu.inst     0.919266                       # mshr miss rate for demand accesses
system.l2.demand_mshr_miss_rate::.cpu.data     0.997442                       # mshr miss rate for demand accesses
system.l2.demand_mshr_miss_rate::total       0.989870                       # mshr miss rate for demand accesses
system.l2.overall_mshr_miss_rate::.cpu.inst     0.919266                       # mshr miss rate for overall accesses
system.l2.overall_mshr_miss_rate::.cpu.data     0.997442                       # mshr miss rate for overall accesses
system.l2.overall_mshr_miss_rate::total      0.989870                       # mshr miss rate for overall accesses
system.l2.demand_avg_mshr_miss_latency::.cpu.inst 66306.387226                       # average overall mshr miss latency
system.l2.demand_avg_mshr_miss_latency::.cpu.data 75191.260604                       # average overall mshr miss latency
system.l2.demand_avg_mshr_miss_latency::total 74392.100539                       # average overall mshr miss latency
system.l2.overall_avg_mshr_miss_latency::.cpu.inst 66306.387226                       # average overall mshr miss latency
system.l2.overall_avg_mshr_miss_latency::.cpu.data 75191.260604                       # average overall mshr miss latency
system.l2.overall_avg_mshr_miss_latency::total 74392.100539                       # average overall mshr miss latency
system.l2.replacements                           4345                       # number of replacements
system.l2.WritebackDirty_hits::.writebacks         4806                       # number of WritebackDirty hits
system.l2.WritebackDirty_hits::total             4806                       # number of WritebackDirty hits
system.l2.WritebackDirty_accesses::.writebacks         4806                       # number of WritebackDirty accesses(hits+misses)
system.l2.WritebackDirty_accesses::total         4806                       # number of WritebackDirty accesses(hits+misses)
system.l2.WritebackClean_hits::.writebacks           99                       # number of WritebackClean hits
system.l2.WritebackClean_hits::total               99                       # number of WritebackClean hits
system.l2.WritebackClean_accesses::.writebacks           99                       # number of WritebackClean accesses(hits+misses)
system.l2.WritebackClean_accesses::total           99                       # number of WritebackClean accesses(hits+misses)
system.l2.ReadExReq_misses::.cpu.data            4947                       # number of ReadExReq misses
system.l2.ReadExReq_misses::total                4947                       # number of ReadExReq misses
system.l2.ReadExReq_miss_latency::.cpu.data    421917500                       # number of ReadExReq miss cycles
system.l2.ReadExReq_miss_latency::total     421917500                       # number of ReadExReq miss cycles
system.l2.ReadExReq_accesses::.cpu.data          4947                       # number of ReadExReq accesses(hits+misses)
system.l2.ReadExReq_accesses::total              4947                       # number of ReadExReq accesses(hits+misses)
system.l2.ReadExReq_miss_rate::.cpu.data            1                       # miss rate for ReadExReq accesses
system.l2.ReadExReq_miss_rate::total                1                       # miss rate for ReadExReq accesses
system.l2.ReadExReq_avg_miss_latency::.cpu.data 85287.548009                       # average ReadExReq miss latency
system.l2.ReadExReq_avg_miss_latency::total 85287.548009                       # average ReadExReq miss latency
system.l2.ReadExReq_mshr_misses::.cpu.data         4947                       # number of ReadExReq MSHR misses
system.l2.ReadExReq_mshr_misses::total           4947                       # number of ReadExReq MSHR misses
system.l2.ReadExReq_mshr_miss_latency::.cpu.data    372447500                       # number of ReadExReq MSHR miss cycles
system.l2.ReadExReq_mshr_miss_latency::total    372447500                       # number of ReadExReq MSHR miss cycles
system.l2.ReadExReq_mshr_miss_rate::.cpu.data            1                       # mshr miss rate for ReadExReq accesses
system.l2.ReadExReq_mshr_miss_rate::total            1                       # mshr miss rate for ReadExReq accesses
system.l2.ReadExReq_avg_mshr_miss_latency::.cpu.data 75287.548009                       # average ReadExReq mshr miss latency
system.l2.ReadExReq_avg_mshr_miss_latency::total 75287.548009                       # average ReadExReq mshr miss latency
system.l2.ReadCleanReq_hits::.cpu.inst             44                       # number of ReadCleanReq hits
system.l2.ReadCleanReq_hits::total                 44                       # number of ReadCleanReq hits
system.l2.ReadCleanReq_misses::.cpu.inst          501                       # number of ReadCleanReq misses
system.l2.ReadCleanReq_misses::total              501                       # number of ReadCleanReq misses
system.l2.ReadCleanReq_miss_latency::.cpu.inst     38229500                       # number of ReadCleanReq miss cycles
system.l2.ReadCleanReq_miss_latency::total     38229500                       # number of ReadCleanReq miss cycles
system.l2.ReadCleanReq_accesses::.cpu.inst          545                       # number of ReadCleanReq accesses(hits+misses)
system.l2.ReadCleanReq_accesses::total            545                       # number of ReadCleanReq accesses(hits+misses)
system.l2.ReadCleanReq_miss_rate::.cpu.inst     0.919266                       # miss rate for ReadCleanReq accesses
system.l2.ReadCleanReq_miss_rate::total      0.919266                       # miss rate for ReadCleanReq accesses
system.l2.ReadCleanReq_avg_miss_latency::.cpu.inst 76306.387226                       # average ReadCleanReq miss latency
system.l2.ReadCleanReq_avg_miss_latency::total 76306.387226                       # average ReadCleanReq miss latency
system.l2.ReadCleanReq_mshr_misses::.cpu.inst          501                       # number of ReadCleanReq MSHR misses
system.l2.ReadCleanReq_mshr_misses::total          501                       # number of ReadCleanReq MSHR misses
system.l2.ReadCleanReq_mshr_miss_latency::.cpu.inst     33219500                       # number of ReadCleanReq MSHR miss cycles
system.l2.ReadCleanReq_mshr_miss_latency::total     33219500                       # number of ReadCleanReq MSHR miss cycles
system.l2.ReadCleanReq_mshr_miss_rate::.cpu.inst     0.919266                       # mshr miss rate for ReadCleanReq accesses
system.l2.ReadCleanReq_mshr_miss_rate::total     0.919266                       # mshr miss rate for ReadCleanReq accesses
system.l2.ReadCleanReq_avg_mshr_miss_latency::.cpu.inst 66306.387226                       # average ReadCleanReq mshr miss latency
system.l2.ReadCleanReq_avg_mshr_miss_latency::total 66306.387226                       # average ReadCleanReq mshr miss latency
system.l2.ReadSharedReq_hits::.cpu.data            13                       # number of ReadSharedReq hits
system.l2.ReadSharedReq_hits::total                13                       # number of ReadSharedReq hits
system.l2.ReadSharedReq_misses::.cpu.data          122                       # number of ReadSharedReq misses
system.l2.ReadSharedReq_misses::total             122                       # number of ReadSharedReq misses
system.l2.ReadSharedReq_miss_latency::.cpu.data      9917000                       # number of ReadSharedReq miss cycles
system.l2.ReadSharedReq_miss_latency::total      9917000                       # number of ReadSharedReq miss cycles
system.l2.ReadSharedReq_accesses::.cpu.data          135                       # number of ReadSharedReq accesses(hits+misses)
system.l2.ReadSharedReq_accesses::total           135                       # number of ReadSharedReq accesses(hits+misses)
system.l2.ReadSharedReq_miss_rate::.cpu.data     0.903704                       # miss rate for ReadSharedReq accesses
system.l2.ReadSharedReq_miss_rate::total     0.903704                       # miss rate for ReadSharedReq accesses
system.l2.ReadSharedReq_avg_miss_latency::.cpu.data 81286.885246                       # average ReadSharedReq miss latency
system.l2.ReadSharedReq_avg_miss_latency::total 81286.885246                       # average ReadSharedReq miss latency
system.l2.ReadSharedReq_mshr_misses::.cpu.data          122                       # number of ReadSharedReq MSHR misses
system.l2.ReadSharedReq_mshr_misses::total          122                       # number of ReadSharedReq MSHR misses
system.l2.ReadSharedReq_mshr_miss_latency::.cpu.data      8697000                       # number of ReadSharedReq MSHR miss cycles
system.l2.ReadSharedReq_mshr_miss_latency::total      8697000                       # number of ReadSharedReq MSHR miss cycles
system.l2.ReadSharedReq_mshr_miss_rate::.cpu.data     0.903704                       # mshr miss rate for ReadSharedReq accesses
system.l2.ReadSharedReq_mshr_miss_rate::total     0.903704                       # mshr miss rate for ReadSharedReq accesses
system.l2.ReadSharedReq_avg_mshr_miss_latency::.cpu.data 71286.885246                       # average ReadSharedReq mshr miss latency
system.l2.ReadSharedReq_avg_mshr_miss_latency::total 71286.885246                       # average ReadSharedReq mshr miss latency
system.l2.tags.pwrStateResidencyTicks::UNDEFINED    297796500                       # Cumulative time (in ticks) in various power states
system.l2.tags.tagsinuse                  1056.857501                       # Cycle average of tags in use
system.l2.tags.total_refs                       10535                       # Total number of references to valid blocks.
system.l2.tags.sampled_refs                      5570                       # Sample count of references to valid blocks.
system.l2.tags.avg_refs                      1.891382                       # Average number of references to valid blocks.
system.l2.tags.warmup_cycle                     77000                       # Cycle when the warmup percentage was hit.
system.l2.tags.occ_blocks::.cpu.inst       441.670940                       # Average occupied blocks per requestor
system.l2.tags.occ_blocks::.cpu.data       615.186561                       # Average occupied blocks per requestor
system.l2.tags.occ_percent::.cpu.inst        0.026957                       # Average percentage of cache occupancy
system.l2.tags.occ_percent::.cpu.data        0.037548                       # Average percentage of cache occupancy
system.l2.tags.occ_percent::total            0.064505                       # Average percentage of cache occupancy
system.l2.tags.occ_task_id_blocks::1024          1225                       # Occupied blocks per task id
system.l2.tags.age_task_id_blocks_1024::0          193                       # Occupied blocks per task id
system.l2.tags.age_task_id_blocks_1024::1          319                       # Occupied blocks per task id
system.l2.tags.age_task_id_blocks_1024::2          713                       # Occupied blocks per task id
system.l2.tags.occ_task_id_percent::1024     0.074768                       # Percentage of cache occupancy per task id
system.l2.tags.tag_accesses                     47710                       # Number of tag accesses
system.l2.tags.data_accesses                    47710                       # Number of data accesses
system.cpu_voltage_domain.voltage                   1                       # Voltage in Volts
system.mem_ctrls.pwrStateResidencyTicks::UNDEFINED    297796500                       # Cumulative time (in ticks) in various power states
system.mem_ctrls.bytes_read::.cpu.inst          16032                       # Number of bytes read from this memory
system.mem_ctrls.bytes_read::.cpu.data         162208                       # Number of bytes read from this memory
system.mem_ctrls.bytes_read::total             178240                       # Number of bytes read from this memory
system.mem_ctrls.bytes_inst_read::.cpu.inst        16032                       # Number of instructions bytes read from this memory
system.mem_ctrls.bytes_inst_read::total         16032                       # Number of instructions bytes read from this memory
system.mem_ctrls.bytes_written::.writebacks       138336                       # Number of bytes written to this memory
system.mem_ctrls.bytes_written::total          138336                       # Number of bytes written to this memory
system.mem_ctrls.num_reads::.cpu.inst             501                       # Number of read requests responded to by this memory
system.mem_ctrls.num_reads::.cpu.data            5069                       # Number of read requests responded to by this memory
system.mem_ctrls.num_reads::total                5570                       # Number of read requests responded to by this memory
system.mem_ctrls.num_writes::.writebacks         4323                       # Number of write requests responded to by this memory
system.mem_ctrls.num_writes::total               4323                       # Number of write requests responded to by this memory
system.mem_ctrls.bw_read::.cpu.inst          53835421                       # Total read bandwidth from this memory (bytes/s)
system.mem_ctrls.bw_read::.cpu.data         544694112                       # Total read bandwidth from this memory (bytes/s)
system.mem_ctrls.bw_read::total             598529533                       # Total read bandwidth from this memory (bytes/s)
system.mem_ctrls.bw_inst_read::.cpu.inst     53835421                       # Instruction read bandwidth from this memory (bytes/s)
system.mem_ctrls.bw_inst_read::total         53835421                       # Instruction read bandwidth from this memory (bytes/s)
system.mem_ctrls.bw_write::.writebacks      464531987                       # Write bandwidth from this memory (bytes/s)
system.mem_ctrls.bw_write::total            464531987                       # Write bandwidth from this memory (bytes/s)
system.mem_ctrls.bw_total::.writebacks      464531987                       # Total bandwidth to/from this memory (bytes/s)
system.mem_ctrls.bw_total::.cpu.inst         53835421                       # Total bandwidth to/from this memory (bytes/s)
system.mem_ctrls.bw_total::.cpu.data        544694112                       # Total bandwidth to/from this memory (bytes/s)
system.mem_ctrls.bw_total::total           1063061520                       # Total bandwidth to/from this memory (bytes/s)
system.mem_ctrls.avgPriority_.writebacks::samples      4323.00                       # Average QoS priority value for accepted requests
system.mem_ctrls.avgPriority_.cpu.inst::samples       501.00                       # Average QoS priority value for accepted requests
system.mem_ctrls.avgPriority_.cpu.data::samples      5069.00                       # Average QoS priority value for accepted requests
system.mem_ctrls.priorityMinLatency      0.000000018750                       # per QoS priority minimum request to response latency (s)
system.mem_ctrls.priorityMaxLatency      0.000005658250                       # per QoS priority maximum request to response latency (s)
system.mem_ctrls.numReadWriteTurnArounds          269                       # Number of turnarounds from READ to WRITE
system.mem_ctrls.numWriteReadTurnArounds          269                       # Number of turnarounds from WRITE to READ
system.mem_ctrls.numStayReadState               14966                       # Number of times bus staying in READ state
system.mem_ctrls.numStayWriteState               4035                       # Number of times bus staying in WRITE state
system.mem_ctrls.readReqs                        5570                       # Number of read requests accepted
system.mem_ctrls.writeReqs                       4323                       # Number of write requests accepted
system.mem_ctrls.readBursts                      5570                       # Number of DRAM read bursts, including those serviced by the write queue
system.mem_ctrls.writeBursts                     4323                       # Number of DRAM write bursts, including those merged in the write queue
system.mem_ctrls.servicedByWrQ                      0                       # Number of DRAM read bursts serviced by the write queue
system.mem_ctrls.mergedWrBursts                     0                       # Number of DRAM write bursts merged with an existing one
system.mem_ctrls.neitherReadNorWriteReqs            0                       # Number of requests that are neither read nor write
system.mem_ctrls.perBankRdBursts::0               460                       # Per bank write bursts
system.mem_ctrls.perBankRdBursts::1               367                       # Per bank write bursts
system.mem_ctrls.perBankRdBursts::2               388                       # Per bank write bursts
system.mem_ctrls.perBankRdBursts::3               325                       # Per bank write bursts
system.mem_ctrls.perBankRdBursts::4               421                       # Per bank write bursts
system.mem_ctrls.perBankRdBursts::5               333                       # Per bank write bursts
system.mem_ctrls.perBankRdBursts::6               310                       # Per bank write bursts
system.mem_ctrls.perBankRdBursts::7               322                       # Per bank write bursts
system.mem_ctrls.perBankRdBursts::8               350                       # Per bank write bursts
system.mem_ctrls.perBankRdBursts::9               310                       # Per bank write bursts
system.mem_ctrls.perBankRdBursts::10              343                       # Per bank write bursts
system.mem_ctrls.perBankRdBursts::11              304                       # Per bank write bursts
system.mem_ctrls.perBankRdBursts::12              304                       # Per bank write bursts
system.mem_ctrls.perBankRdBursts::13              334                       # Per bank write bursts
system.mem_ctrls.perBankRdBursts::14              349                       # Per bank write bursts
system.mem_ctrls.perBankRdBursts::15              350                       # Per bank write bursts
system.mem_ctrls.perBankWrBursts::0               264                       # Per bank write bursts
system.mem_ctrls.perBankWrBursts::1               264                       # Per bank write bursts
system.mem_ctrls.perBankWrBursts::2               267                       # Per bank write bursts
system.mem_ctrls.perBankWrBursts::3               264                       # Per bank write bursts
system.mem_ctrls.perBankWrBursts::4               265                       # Per bank write bursts
system.mem_ctrls.perBankWrBursts::5               264                       # Per bank write bursts
system.mem_ctrls.perBankWrBursts::6               269                       # Per bank write bursts
system.mem_ctrls.perBankWrBursts::7               272                       # Per bank write bursts
system.mem_ctrls.perBankWrBursts::8               272                       # Per bank write bursts
system.mem_ctrls.perBankWrBursts::9               272                       # Per bank write bursts
system.mem_ctrls.perBankWrBursts::10              272                       # Per bank write bursts
system.mem_ctrls.perBankWrBursts::11              272                       # Per bank write bursts
system.mem_ctrls.perBankWrBursts::12              272                       # Per bank write bursts
system.mem_ctrls.perBankWrBursts::13              272                       # Per bank write bursts
system.mem_ctrls.perBankWrBursts::14              272                       # Per bank write bursts
system.mem_ctrls.perBankWrBursts::15              271                       # Per bank write bursts
system.mem_ctrls.avgRdQLen                       1.73                       # Average read queue length when enqueuing
system.mem_ctrls.avgWrQLen                      19.71                       # Average write queue length when enqueuing
system.mem_ctrls.totQLat                     81288750                       # Total ticks spent queuing
system.mem_ctrls.totBusLat                   27850000                       # Total ticks spent in databus transfers
system.mem_ctrls.totMemAccLat               185726250                       # Total ticks spent from burst creation until serviced by the DRAM
system.mem_ctrls.avgQLat                     14594.03                       # Average queueing delay per DRAM burst
system.mem_ctrls.avgBusLat                    5000.00                       # Average bus latency per DRAM burst
system.mem_ctrls.avgMemAccLat                33344.03                       # Average memory access latency per DRAM burst
system.mem_ctrls.numRdRetry                         0                       # Number of times read queue was full causing retry
system.mem_ctrls.numWrRetry                         0                       # Number of times write queue was full causing retry
system.mem_ctrls.readRowHits                     4779                       # Number of row buffer hits during reads
system.mem_ctrls.writeRowHits                    3734                       # Number of row buffer hits during writes
system.mem_ctrls.readRowHitRate                 85.80                       # Row buffer hit rate for reads
system.mem_ctrls.writeRowHitRate                86.38                       # Row buffer hit rate for writes
system.mem_ctrls.readPktSize::0                     0                       # Read request sizes (log2)
system.mem_ctrls.readPktSize::1                     0                       # Read request sizes (log2)
system.mem_ctrls.readPktSize::2                     0                       # Read request sizes (log2)
system.mem_ctrls.readPktSize::3                     0                       # Read request sizes (log2)
system.mem_ctrls.readPktSize::4                     0                       # Read request sizes (log2)
system.mem_ctrls.readPktSize::5                  5570                       # Read request sizes (log2)
system.mem_ctrls.readPktSize::6                     0                       # Read request sizes (log2)
system.mem_ctrls.writePktSize::0                    0                       # Write request sizes (log2)
system.mem_ctrls.writePktSize::1                    0                       # Write request sizes (log2)
system.mem_ctrls.writePktSize::2                    0                       # Write request sizes (log2)
system.mem_ctrls.writePktSize::3                    0                       # Write request sizes (log2)
system.mem_ctrls.writePktSize::4                    0                       # Write request sizes (log2)
system.mem_ctrls.writePktSize::5                 4323                       # Write request sizes (log2)
system.mem_ctrls.writePktSize::6                    0                       # Write request sizes (log2)
system.mem_ctrls.rdQLenPdf::0                    3155                       # What read queue length does an incoming req see
system.mem_ctrls.rdQLenPdf::1                    2401                       # What read queue length does an incoming req see
system.mem_ctrls.rdQLenPdf::2                      14                       # What read queue length does an incoming req see
system.mem_ctrls.rdQLenPdf::3                       0                       # What read queue length does an incoming req see
system.mem_ctrls.rdQLenPdf::4                       0                       # What read queue length does an incoming req see
system.mem_ctrls.rdQLenPdf::5                       0                       # What read queue length does an incoming req see
system.mem_ctrls.rdQLenPdf::6                       0                       # What read queue length does an incoming req see
system.mem_ctrls.rdQLenPdf::7                       0                       # What read queue length does an incoming req see
system.mem_ctrls.rdQLenPdf::8                       0                       # What read queue length does an incoming req see
system.mem_ctrls.rdQLenPdf::9                       0                       # What read queue length does an incoming req see
system.mem_ctrls.rdQLenPdf::10                      0                       # What read queue length does an incoming req see
system.mem_ctrls.rdQLenPdf::11                      0                       # What read queue length does an incoming req see
system.mem_ctrls.rdQLenPdf::12                      0                       # What read queue length does an incoming req see
system.mem_ctrls.rdQLenPdf::13                      0                       # What read queue length does an incoming req see
system.mem_ctrls.rdQLenPdf::14                      0                       # What read queue length does an incoming req see
system.mem_ctrls.rdQLenPdf::15                      0                       # What read queue length does an incoming req see
system.mem_ctrls.rdQLenPdf::16                      0                       # What read queue length does an incoming req see
system.mem_ctrls.rdQLenPdf::17                      0                       # What read queue length does an incoming req see
system.mem_ctrls.rdQLenPdf::18                      0                       # What read queue length does an incoming req see
system.mem_ctrls.rdQLenPdf::19                      0                       # What read queue length does an incoming req see
system.mem_ctrls.rdQLenPdf::20                      0                       # What read queue length does an incoming req see
system.mem_ctrls.rdQLenPdf::21                      0                       # What read queue length does an incoming req see
system.mem_ctrls.rdQLenPdf::22                      0                       # What read queue length does an incoming req see
system.mem_ctrls.rdQLenPdf::23                      0                       # What read queue length does an incoming req see
system.mem_ctrls.rdQLenPdf::24                      0                       # What read queue length does an incoming req see
system.mem_ctrls.rdQLenPdf::25                      0                       # What read queue length does an incoming req see
system.mem_ctrls.rdQLenPdf::26                      0                       # What read queue length does an incoming req see
system.mem_ctrls.rdQLenPdf::27                      0                       # What read queue length does an incoming req see
system.mem_ctrls.rdQLenPdf::28                      0                       # What read queue length does an incoming req see
system.mem_ctrls.rdQLenPdf::29                      0                       # What read queue length does an incoming req see
system.mem_ctrls.rdQLenPdf::30                      0                       # What read queue length does an incoming req see
system.mem_ctrls.rdQLenPdf::31                      0                       # What read queue length does an incoming req see
system.mem_ctrls.wrQLenPdf::0                       1                       # What write queue length does an incoming req see
system.mem_ctrls.wrQLenPdf::1                       1                       # What write queue length does an incoming req see
system.mem_ctrls.wrQLenPdf::2                       1                       # What write queue length does an incoming req see
system.mem_ctrls.wrQLenPdf::3                       1                       # What write queue length does an incoming req see
system.mem_ctrls.wrQLenPdf::4                       1                       # What write queue length does an incoming req see
system.mem_ctrls.wrQLenPdf::5                       1                       # What write queue length does an incoming req see
system.mem_ctrls.wrQLenPdf::6                       1                       # What write queue length does an incoming req see
system.mem_ctrls.wrQLenPdf::7                       1                       # What write queue length does an incoming req see
system.mem_ctrls.wrQLenPdf::8                       1                       # What write queue length does an incoming req see
system.mem_ctrls.wrQLenPdf::9                       1                       # What write queue length does an incoming req see
system.mem_ctrls.wrQLenPdf::10                      1                       # What write queue length does an incoming req see
system.mem_ctrls.wrQLenPdf::11                      1                       # What write queue length does an incoming req see
system.mem_ctrls.wrQLenPdf::12                      1                       # What write queue length does an incoming req see
system.mem_ctrls.wrQLenPdf::13                      1                       # What write queue length does an incoming req see
system.mem_ctrls.wrQLenPdf::14                      1                       # What write queue length does an incoming req see
system.mem_ctrls.wrQLenPdf::15                      1                       # What write queue length does an incoming req see
system.mem_ctrls.wrQLenPdf::16                      1                       # What write queue length does an incoming req see
system.mem_ctrls.wrQLenPdf::17                    241                       # What write queue length does an incoming req see
system.mem_ctrls.wrQLenPdf::18                    279                       # What write queue length does an incoming req see
system.mem_ctrls.wrQLenPdf::19                    269                       # What write queue length does an incoming req see
system.mem_ctrls.wrQLenPdf::20                    269                       # What write queue length does an incoming req see
system.mem_ctrls.wrQLenPdf::21                    269                       # What write queue length does an incoming req see
system.mem_ctrls.wrQLenPdf::22                    269                       # What write queue length does an incoming req see
system.mem_ctrls.wrQLenPdf::23                    273                       # What write queue length does an incoming req see
system.mem_ctrls.wrQLenPdf::24                    285                       # What write queue length does an incoming req see
system.mem_ctrls.wrQLenPdf::25                    269                       # What write queue length does an incoming req see
system.mem_ctrls.wrQLenPdf::26                    269                       # What write queue length does an incoming req see
system.mem_ctrls.wrQLenPdf::27                    269                       # What write queue length does an incoming req see
system.mem_ctrls.wrQLenPdf::28                    269                       # What write queue length does an incoming req see
system.mem_ctrls.wrQLenPdf::29                    269                       # What write queue length does an incoming req see
system.mem_ctrls.wrQLenPdf::30                    269                       # What write queue length does an incoming req see
system.mem_ctrls.wrQLenPdf::31                    269                       # What write queue length does an incoming req see
system.mem_ctrls.wrQLenPdf::32                    269                       # What write queue length does an incoming req see
system.mem_ctrls.wrQLenPdf::33                      0                       # What write queue length does an incoming req see
system.mem_ctrls.wrQLenPdf::34                      0                       # What write queue length does an incoming req see
system.mem_ctrls.wrQLenPdf::35                      0                       # What write queue length does an incoming req see
system.mem_ctrls.wrQLenPdf::36                      0                       # What write queue length does an incoming req see
system.mem_ctrls.wrQLenPdf::37                      0                       # What write queue length does an incoming req see
system.mem_ctrls.wrQLenPdf::38                      0                       # What write queue length does an incoming req see
system.mem_ctrls.wrQLenPdf::39                      0                       # What write queue length does an incoming req see
system.mem_ctrls.wrQLenPdf::40                      0                       # What write queue length does an incoming req see
system.mem_ctrls.wrQLenPdf::41                      0                       # What write queue length does an incoming req see
system.mem_ctrls.wrQLenPdf::42                      0                       # What write queue length does an incoming req see
system.mem_ctrls.wrQLenPdf::43                      0                       # What write queue length does an incoming req see
system.mem_ctrls.wrQLenPdf::44                      0                       # What write queue length does an incoming req see
system.mem_ctrls.wrQLenPdf::45                      0                       # What write queue length does an incoming req see
system.mem_ctrls.wrQLenPdf::46                      0                       # What write queue length does an incoming req see
system.mem_ctrls.wrQLenPdf::47                      0                       # What write queue length does an incoming req see
system.mem_ctrls.wrQLenPdf::48                      0                       # What write queue length does an incoming req see
system.mem_ctrls.wrQLenPdf::49                      0                       # What write queue length does an incoming req see
system.mem_ctrls.wrQLenPdf::50                      0                       # What write queue length does an incoming req see
system.mem_ctrls.wrQLenPdf::51                      0                       # What write queue length does an incoming req see
system.mem_ctrls.wrQLenPdf::52                      0                       # What write queue length does an incoming req see
system.mem_ctrls.wrQLenPdf::53                      0                       # What write queue length does an incoming req see
system.mem_ctrls.wrQLenPdf::54                      0                       # What write queue length does an incoming req see
system.mem_ctrls.wrQLenPdf::55                      0                       # What write queue length does an incoming req see
system.mem_ctrls.wrQLenPdf::56                      0                       # What write queue length does an incoming req see
system.mem_ctrls.wrQLenPdf::57                      0                       # What write queue length does an incoming req see
system.mem_ctrls.wrQLenPdf::58                      0                       # What write queue length does an incoming req see
system.mem_ctrls.wrQLenPdf::59                      0                       # What write queue length does an incoming req see
system.mem_ctrls.wrQLenPdf::60                      0                       # What write queue length does an incoming req see
system.mem_ctrls.wrQLenPdf::61                      0                       # What write queue length does an incoming req see
system.mem_ctrls.wrQLenPdf::62                      0                       # What write queue length does an incoming req see
system.mem_ctrls.wrQLenPdf::63                      0                       # What write queue length does an incoming req see
system.mem_ctrls.bytesPerActivate::samples         1353                       # Bytes accessed per row activation
system.mem_ctrls.bytesPerActivate::mean    464.650407                       # Bytes accessed per row activation
system.mem_ctrls.bytesPerActivate::gmean   421.151373                       # Bytes accessed per row activation
system.mem_ctrls.bytesPerActivate::stdev   143.239784                       # Bytes accessed per row activation
system.mem_ctrls.bytesPerActivate::0-127           74      5.47%      5.47% # Bytes accessed per row activation
system.mem_ctrls.bytesPerActivate::128-255           71      5.25%     10.72% # Bytes accessed per row activation
system.mem_ctrls.bytesPerActivate::256-383           35      2.59%     13.30% # Bytes accessed per row activation
system.mem_ctrls.bytesPerActivate::384-511           68      5.03%     18.33% # Bytes accessed per row activation
system.mem_ctrls.bytesPerActivate::512-639         1082     79.97%     98.30% # Bytes accessed per row activation
system.mem_ctrls.bytesPerActivate::640-767            5      0.37%     98.67% # Bytes accessed per row activation
system.mem_ctrls.bytesPerActivate::768-895            4      0.30%     98.97% # Bytes accessed per row activation
system.mem_ctrls.bytesPerActivate::896-1023            1      0.07%     99.04% # Bytes accessed per row activation
system.mem_ctrls.bytesPerActivate::1024-1151           13      0.96%    100.00% # Bytes accessed per row activation
system.mem_ctrls.bytesPerActivate::total         1353                       # Bytes accessed per row activation
system.mem_ctrls.rdPerTurnAround::samples          269                       # Reads before turning the bus around for writes
system.mem_ctrls.rdPerTurnAround::mean      20.698885                       # Reads before turning the bus around for writes
system.mem_ctrls.rdPerTurnAround::gmean     16.265684                       # Reads before turning the bus around for writes
system.mem_ctrls.rdPerTurnAround::stdev     77.006411                       # Reads before turning the bus around for writes
system.mem_ctrls.rdPerTurnAround::0-63            268     99.63%     99.63% # Reads before turning the bus around for writes
system.mem_ctrls.rdPerTurnAround::1216-1279            1      0.37%    100.00% # Reads before turning the bus around for writes
system.mem_ctrls.rdPerTurnAround::total           269                       # Reads before turning the bus around for writes
system.mem_ctrls.wrPerTurnAround::samples          269                       # Writes before turning the bus around for reads
system.mem_ctrls.wrPerTurnAround::mean             16                       # Writes before turning the bus around for reads
system.mem_ctrls.wrPerTurnAround::gmean     16.000000                       # Writes before turning the bus around for reads
system.mem_ctrls.wrPerTurnAround::16              269    100.00%    100.00% # Writes before turning the bus around for reads
system.mem_ctrls.wrPerTurnAround::total           269                       # Writes before turning the bus around for reads
system.mem_ctrls.bytesReadDRAM                 356480                       # Total number of bytes read from DRAM
system.mem_ctrls.bytesReadWrQ                       0                       # Total number of bytes read from write queue
system.mem_ctrls.bytesWritten                  275456                       # Total number of bytes written to DRAM
system.mem_ctrls.bytesReadSys                  178240                       # Total read bytes from the system interface side
system.mem_ctrls.bytesWrittenSys               138336                       # Total written bytes from the system interface side
system.mem_ctrls.avgRdBW                      1197.06                       # Average DRAM read bandwidth in MiByte/s
system.mem_ctrls.avgWrBW                       924.98                       # Average achieved write bandwidth in MiByte/s
system.mem_ctrls.avgRdBWSys                    598.53                       # Average system read bandwidth in MiByte/s
system.mem_ctrls.avgWrBWSys                    464.53                       # Average system write bandwidth in MiByte/s
system.mem_ctrls.peakBW                      12800.00                       # Theoretical peak bandwidth in MiByte/s
system.mem_ctrls.busUtil                        16.58                       # Data bus utilization in percentage
system.mem_ctrls.busUtilRead                     9.35                       # Data bus utilization in percentage for reads
[...]
system.cpu.icache.tags.warmup_cycle             87500                       # Cycle when the warmup percentage was hit.
system.cpu.icache.tags.occ_blocks::.cpu.inst   403.694743                       # Average occupied blocks per requestor
system.cpu.icache.tags.occ_percent::.cpu.inst     0.197117                       # Average percentage of cache occupancy
system.cpu.icache.tags.occ_percent::total     0.197117                       # Average percentage of cache occupancy
system.cpu.icache.tags.occ_task_id_blocks::1024          443                       # Occupied blocks per task id
system.cpu.icache.tags.age_task_id_blocks_1024::2          443                       # Occupied blocks per task id
system.cpu.icache.tags.occ_task_id_percent::1024     0.216309                       # Percentage of cache occupancy per task id
system.cpu.icache.tags.tag_accesses             23486                       # Number of tag accesses
system.cpu.icache.tags.data_accesses            23486                       # Number of data accesses
system.cpu.dtb.walker.pwrStateResidencyTicks::UNDEFINED    297796500                       # Cumulative time (in ticks) in various power states
system.cpu.dtb.stage2_mmu.stage2_tlb.walker.pwrStateResidencyTicks::UNDEFINED    297796500                       # Cumulative time (in ticks) in various power states
system.cpu.dcache.pwrStateResidencyTicks::UNDEFINED    297796500                       # Cumulative time (in ticks) in various power states
system.cpu.dcache.demand_hits::.cpu.data        41303                       # number of demand (read+write) hits
system.cpu.dcache.demand_hits::total            41303                       # number of demand (read+write) hits
system.cpu.dcache.overall_hits::.cpu.data        41319                       # number of overall hits
system.cpu.dcache.overall_hits::total           41319                       # number of overall hits
system.cpu.dcache.demand_misses::.cpu.data         5156                       # number of demand (read+write) misses
system.cpu.dcache.demand_misses::total           5156                       # number of demand (read+write) misses
system.cpu.dcache.overall_misses::.cpu.data         5173                       # number of overall misses
system.cpu.dcache.overall_misses::total          5173                       # number of overall misses
system.cpu.dcache.demand_miss_latency::.cpu.data    449553500                       # number of demand (read+write) miss cycles
system.cpu.dcache.demand_miss_latency::total    449553500                       # number of demand (read+write) miss cycles
system.cpu.dcache.overall_miss_latency::.cpu.data    449553500                       # number of overall miss cycles
system.cpu.dcache.overall_miss_latency::total    449553500                       # number of overall miss cycles
system.cpu.dcache.demand_accesses::.cpu.data        46459                       # number of demand (read+write) accesses
system.cpu.dcache.demand_accesses::total        46459                       # number of demand (read+write) accesses
system.cpu.dcache.overall_accesses::.cpu.data        46492                       # number of overall (read+write) accesses
system.cpu.dcache.overall_accesses::total        46492                       # number of overall (read+write) accesses
system.cpu.dcache.demand_miss_rate::.cpu.data     0.110980                       # miss rate for demand accesses
system.cpu.dcache.demand_miss_rate::total     0.110980                       # miss rate for demand accesses
system.cpu.dcache.overall_miss_rate::.cpu.data     0.111266                       # miss rate for overall accesses
system.cpu.dcache.overall_miss_rate::total     0.111266                       # miss rate for overall accesses
system.cpu.dcache.demand_avg_miss_latency::.cpu.data 87190.360745                       # average overall miss latency
system.cpu.dcache.demand_avg_miss_latency::total 87190.360745                       # average overall miss latency
system.cpu.dcache.overall_avg_miss_latency::.cpu.data 86903.827566                       # average overall miss latency
system.cpu.dcache.overall_avg_miss_latency::total 86903.827566                       # average overall miss latency
system.cpu.dcache.blocked_cycles::no_mshrs            0                       # number of cycles access was blocked
system.cpu.dcache.blocked_cycles::no_targets            0                       # number of cycles access was blocked
system.cpu.dcache.blocked::no_mshrs                 0                       # number of cycles access was blocked
system.cpu.dcache.blocked::no_targets               0                       # number of cycles access was blocked
system.cpu.dcache.avg_blocked_cycles::no_mshrs          nan                       # average number of cycles each access was blocked
system.cpu.dcache.avg_blocked_cycles::no_targets          nan                       # average number of cycles each access was blocked
system.cpu.dcache.writebacks::.writebacks         4806                       # number of writebacks
system.cpu.dcache.writebacks::total              4806                       # number of writebacks
system.cpu.dcache.demand_mshr_hits::.cpu.data           92                       # number of demand (read+write) MSHR hits
system.cpu.dcache.demand_mshr_hits::total           92                       # number of demand (read+write) MSHR hits
system.cpu.dcache.overall_mshr_hits::.cpu.data           92                       # number of overall MSHR hits
system.cpu.dcache.overall_mshr_hits::total           92                       # number of overall MSHR hits
system.cpu.dcache.demand_mshr_misses::.cpu.data         5064                       # number of demand (read+write) MSHR misses
system.cpu.dcache.demand_mshr_misses::total         5064                       # number of demand (read+write) MSHR misses
system.cpu.dcache.overall_mshr_misses::.cpu.data         5081                       # number of overall MSHR misses
system.cpu.dcache.overall_mshr_misses::total         5081                       # number of overall MSHR misses
system.cpu.dcache.demand_mshr_miss_latency::.cpu.data    438005000                       # number of demand (read+write) MSHR miss cycles
system.cpu.dcache.demand_mshr_miss_latency::total    438005000                       # number of demand (read+write) MSHR miss cycles
system.cpu.dcache.overall_mshr_miss_latency::.cpu.data    439414500                       # number of overall MSHR miss cycles
system.cpu.dcache.overall_mshr_miss_latency::total    439414500                       # number of overall MSHR miss cycles
system.cpu.dcache.demand_mshr_miss_rate::.cpu.data     0.108999                       # mshr miss rate for demand accesses
system.cpu.dcache.demand_mshr_miss_rate::total     0.108999                       # mshr miss rate for demand accesses
system.cpu.dcache.overall_mshr_miss_rate::.cpu.data     0.109288                       # mshr miss rate for overall accesses
system.cpu.dcache.overall_mshr_miss_rate::total     0.109288                       # mshr miss rate for overall accesses
system.cpu.dcache.demand_avg_mshr_miss_latency::.cpu.data 86493.878357                       # average overall mshr miss latency
system.cpu.dcache.demand_avg_mshr_miss_latency::total 86493.878357                       # average overall mshr miss latency
system.cpu.dcache.overall_avg_mshr_miss_latency::.cpu.data 86481.893328                       # average overall mshr miss latency
system.cpu.dcache.overall_avg_mshr_miss_latency::total 86481.893328                       # average overall mshr miss latency
system.cpu.dcache.replacements                   4809                       # number of replacements
system.cpu.dcache.ReadReq_hits::.cpu.data        35215                       # number of ReadReq hits
system.cpu.dcache.ReadReq_hits::total           35215                       # number of ReadReq hits
system.cpu.dcache.ReadReq_misses::.cpu.data          124                       # number of ReadReq misses
system.cpu.dcache.ReadReq_misses::total           124                       # number of ReadReq misses
system.cpu.dcache.ReadReq_miss_latency::.cpu.data      9464500                       # number of ReadReq miss cycles
system.cpu.dcache.ReadReq_miss_latency::total      9464500                       # number of ReadReq miss cycles
system.cpu.dcache.ReadReq_accesses::.cpu.data        35339                       # number of ReadReq accesses(hits+misses)
system.cpu.dcache.ReadReq_accesses::total        35339                       # number of ReadReq accesses(hits+misses)
system.cpu.dcache.ReadReq_miss_rate::.cpu.data     0.003509                       # miss rate for ReadReq accesses
system.cpu.dcache.ReadReq_miss_rate::total     0.003509                       # miss rate for ReadReq accesses
system.cpu.dcache.ReadReq_avg_miss_latency::.cpu.data 76326.612903                       # average ReadReq miss latency
system.cpu.dcache.ReadReq_avg_miss_latency::total 76326.612903                       # average ReadReq miss latency
system.cpu.dcache.ReadReq_mshr_hits::.cpu.data            7                       # number of ReadReq MSHR hits
system.cpu.dcache.ReadReq_mshr_hits::total            7                       # number of ReadReq MSHR hits
system.cpu.dcache.ReadReq_mshr_misses::.cpu.data          117                       # number of ReadReq MSHR misses
system.cpu.dcache.ReadReq_mshr_misses::total          117                       # number of ReadReq MSHR misses
system.cpu.dcache.ReadReq_mshr_miss_latency::.cpu.data      8786500                       # number of ReadReq MSHR miss cycles
system.cpu.dcache.ReadReq_mshr_miss_latency::total      8786500                       # number of ReadReq MSHR miss cycles
system.cpu.dcache.ReadReq_mshr_miss_rate::.cpu.data     0.003311                       # mshr miss rate for ReadReq accesses
system.cpu.dcache.ReadReq_mshr_miss_rate::total     0.003311                       # mshr miss rate for ReadReq accesses
system.cpu.dcache.ReadReq_avg_mshr_miss_latency::.cpu.data 75098.290598                       # average ReadReq mshr miss latency
system.cpu.dcache.ReadReq_avg_mshr_miss_latency::total 75098.290598                       # average ReadReq mshr miss latency
system.cpu.dcache.WriteReq_hits::.cpu.data         6088                       # number of WriteReq hits
system.cpu.dcache.WriteReq_hits::total           6088                       # number of WriteReq hits
system.cpu.dcache.WriteReq_misses::.cpu.data         5032                       # number of WriteReq misses
system.cpu.dcache.WriteReq_misses::total         5032                       # number of WriteReq misses
system.cpu.dcache.WriteReq_miss_latency::.cpu.data    440089000                       # number of WriteReq miss cycles
system.cpu.dcache.WriteReq_miss_latency::total    440089000                       # number of WriteReq miss cycles
system.cpu.dcache.WriteReq_accesses::.cpu.data        11120                       # number of WriteReq accesses(hits+misses)
system.cpu.dcache.WriteReq_accesses::total        11120                       # number of WriteReq accesses(hits+misses)
system.cpu.dcache.WriteReq_miss_rate::.cpu.data     0.452518                       # miss rate for WriteReq accesses
system.cpu.dcache.WriteReq_miss_rate::total     0.452518                       # miss rate for WriteReq accesses
system.cpu.dcache.WriteReq_avg_miss_latency::.cpu.data 87458.068362                       # average WriteReq miss latency
system.cpu.dcache.WriteReq_avg_miss_latency::total 87458.068362                       # average WriteReq miss latency
system.cpu.dcache.WriteReq_mshr_hits::.cpu.data           85                       # number of WriteReq MSHR hits
system.cpu.dcache.WriteReq_mshr_hits::total           85                       # number of WriteReq MSHR hits
system.cpu.dcache.WriteReq_mshr_misses::.cpu.data         4947                       # number of WriteReq MSHR misses
system.cpu.dcache.WriteReq_mshr_misses::total         4947                       # number of WriteReq MSHR misses
system.cpu.dcache.WriteReq_mshr_miss_latency::.cpu.data    429218500                       # number of WriteReq MSHR miss cycles
system.cpu.dcache.WriteReq_mshr_miss_latency::total    429218500                       # number of WriteReq MSHR miss cycles
system.cpu.dcache.WriteReq_mshr_miss_rate::.cpu.data     0.444874                       # mshr miss rate for WriteReq accesses
system.cpu.dcache.WriteReq_mshr_miss_rate::total     0.444874                       # mshr miss rate for WriteReq accesses
system.cpu.dcache.WriteReq_avg_mshr_miss_latency::.cpu.data 86763.391955                       # average WriteReq mshr miss latency
system.cpu.dcache.WriteReq_avg_mshr_miss_latency::total 86763.391955                       # average WriteReq mshr miss latency
system.cpu.dcache.SoftPFReq_hits::.cpu.data           16                       # number of SoftPFReq hits
system.cpu.dcache.SoftPFReq_hits::total            16                       # number of SoftPFReq hits
system.cpu.dcache.SoftPFReq_misses::.cpu.data           17                       # number of SoftPFReq misses
system.cpu.dcache.SoftPFReq_misses::total           17                       # number of SoftPFReq misses
system.cpu.dcache.SoftPFReq_accesses::.cpu.data           33                       # number of SoftPFReq accesses(hits+misses)
system.cpu.dcache.SoftPFReq_accesses::total           33                       # number of SoftPFReq accesses(hits+misses)
system.cpu.dcache.SoftPFReq_miss_rate::.cpu.data     0.515152                       # miss rate for SoftPFReq accesses
system.cpu.dcache.SoftPFReq_miss_rate::total     0.515152                       # miss rate for SoftPFReq accesses
system.cpu.dcache.SoftPFReq_mshr_misses::.cpu.data           17                       # number of SoftPFReq MSHR misses
system.cpu.dcache.SoftPFReq_mshr_misses::total           17                       # number of SoftPFReq MSHR misses
system.cpu.dcache.SoftPFReq_mshr_miss_latency::.cpu.data      1409500                       # number of SoftPFReq MSHR miss cycles
system.cpu.dcache.SoftPFReq_mshr_miss_latency::total      1409500                       # number of SoftPFReq MSHR miss cycles
system.cpu.dcache.SoftPFReq_mshr_miss_rate::.cpu.data     0.515152                       # mshr miss rate for SoftPFReq accesses
system.cpu.dcache.SoftPFReq_mshr_miss_rate::total     0.515152                       # mshr miss rate for SoftPFReq accesses
system.cpu.dcache.SoftPFReq_avg_mshr_miss_latency::.cpu.data 82911.764706                       # average SoftPFReq mshr miss latency
system.cpu.dcache.SoftPFReq_avg_mshr_miss_latency::total 82911.764706                       # average SoftPFReq mshr miss latency
system.cpu.dcache.LoadLockedReq_hits::.cpu.data            9                       # number of LoadLockedReq hits
system.cpu.dcache.LoadLockedReq_hits::total            9                       # number of LoadLockedReq hits
system.cpu.dcache.LoadLockedReq_misses::.cpu.data            1                       # number of LoadLockedReq misses
system.cpu.dcache.LoadLockedReq_misses::total            1                       # number of LoadLockedReq misses
system.cpu.dcache.LoadLockedReq_miss_latency::.cpu.data        72500                       # number of LoadLockedReq miss cycles
system.cpu.dcache.LoadLockedReq_miss_latency::total        72500                       # number of LoadLockedReq miss cycles
system.cpu.dcache.LoadLockedReq_accesses::.cpu.data           10                       # number of LoadLockedReq accesses(hits+misses)
system.cpu.dcache.LoadLockedReq_accesses::total           10                       # number of LoadLockedReq accesses(hits+misses)
system.cpu.dcache.LoadLockedReq_miss_rate::.cpu.data     0.100000                       # miss rate for LoadLockedReq accesses
system.cpu.dcache.LoadLockedReq_miss_rate::total     0.100000                       # miss rate for LoadLockedReq accesses
system.cpu.dcache.LoadLockedReq_avg_miss_latency::.cpu.data        72500                       # average LoadLockedReq miss latency
system.cpu.dcache.LoadLockedReq_avg_miss_latency::total        72500                       # average LoadLockedReq miss latency
system.cpu.dcache.LoadLockedReq_mshr_misses::.cpu.data            1                       # number of LoadLockedReq MSHR misses
system.cpu.dcache.LoadLockedReq_mshr_misses::total            1                       # number of LoadLockedReq MSHR misses
system.cpu.dcache.LoadLockedReq_mshr_miss_latency::.cpu.data        71500                       # number of LoadLockedReq MSHR miss cycles
system.cpu.dcache.LoadLockedReq_mshr_miss_latency::total        71500                       # number of LoadLockedReq MSHR miss cycles
system.cpu.dcache.LoadLockedReq_mshr_miss_rate::.cpu.data     0.100000                       # mshr miss rate for LoadLockedReq accesses
system.cpu.dcache.LoadLockedReq_mshr_miss_rate::total     0.100000                       # mshr miss rate for LoadLockedReq accesses
system.cpu.dcache.LoadLockedReq_avg_mshr_miss_latency::.cpu.data        71500                       # average LoadLockedReq mshr miss latency
system.cpu.dcache.LoadLockedReq_avg_mshr_miss_latency::total        71500                       # average LoadLockedReq mshr miss latency
system.cpu.dcache.StoreCondReq_hits::.cpu.data           10                       # number of StoreCondReq hits
system.cpu.dcache.StoreCondReq_hits::total           10                       # number of StoreCondReq hits
system.cpu.dcache.StoreCondReq_accesses::.cpu.data           10                       # number of StoreCondReq accesses(hits+misses)
system.cpu.dcache.StoreCondReq_accesses::total           10                       # number of StoreCondReq accesses(hits+misses)
system.cpu.dcache.tags.pwrStateResidencyTicks::UNDEFINED    297796500                       # Cumulative time (in ticks) in various power states
system.cpu.dcache.tags.tagsinuse           248.793337                       # Cycle average of tags in use
system.cpu.dcache.tags.total_refs               46419                       # Total number of references to valid blocks.
system.cpu.dcache.tags.sampled_refs              5081                       # Sample count of references to valid blocks.
system.cpu.dcache.tags.avg_refs              9.135800                       # Average number of references to valid blocks.
system.cpu.dcache.tags.warmup_cycle            176500                       # Cycle when the warmup percentage was hit.
system.cpu.dcache.tags.occ_blocks::.cpu.data   248.793337                       # Average occupied blocks per requestor
system.cpu.dcache.tags.occ_percent::.cpu.data     0.242962                       # Average percentage of cache occupancy
system.cpu.dcache.tags.occ_percent::total     0.242962                       # Average percentage of cache occupancy
system.cpu.dcache.tags.occ_task_id_blocks::1024          272                       # Occupied blocks per task id
system.cpu.dcache.tags.age_task_id_blocks_1024::0           32                       # Occupied blocks per task id
system.cpu.dcache.tags.age_task_id_blocks_1024::2          240                       # Occupied blocks per task id
system.cpu.dcache.tags.occ_task_id_percent::1024     0.265625                       # Percentage of cache occupancy per task id
system.cpu.dcache.tags.tag_accesses            191129                       # Number of tag accesses
system.cpu.dcache.tags.data_accesses           191129                       # Number of data accesses
system.cpu.itb.walker.pwrStateResidencyTicks::UNDEFINED    297796500                       # Cumulative time (in ticks) in various power states
system.cpu.itb.stage2_mmu.stage2_tlb.walker.pwrStateResidencyTicks::UNDEFINED    297796500                       # Cumulative time (in ticks) in various power states

---------- End Simulation Statistics   ----------
