
---------- Begin Simulation Statistics ----------
final_tick                                13594656000                       # Number of ticks from beginning of simulation (restored from checkpoints and never reset)
host_inst_rate                                 251960                       # Simulator instruction rate (inst/s)
host_mem_usage                                 698332                       # Number of bytes of host memory used
host_op_rate                                   252673                       # Simulator op (including micro ops) rate (op/s)
host_seconds                                    39.69                       # Real time elapsed on the host
host_tick_rate                              342529981                       # Simulator tick rate (ticks/s)
sim_freq                                 1000000000000                       # Frequency of simulated ticks
sim_insts                                    10000000                       # Number of instructions simulated
sim_ops                                      10028308                       # Number of ops (including micro ops) simulated
sim_seconds                                  0.013595                       # Number of seconds simulated
sim_ticks                                 13594656000                       # Number of ticks simulated
system.cpu.branchPred.BTBCorrect                    0                       # Number of correct BTB predictions (this stat may not work properly.
system.cpu.branchPred.BTBHitPct             98.803707                       # BTB Hit Percentage
system.cpu.branchPred.BTBHits                  300303                       # Number of BTB hits
system.cpu.branchPred.BTBLookups               303939                       # Number of BTB lookups
system.cpu.branchPred.RASInCorrect                  5                       # Number of incorrect RAS predictions.
system.cpu.branchPred.condIncorrect              7161                       # Number of conditional branches incorrect
system.cpu.branchPred.condPredicted            603860                       # Number of conditional branches predicted
system.cpu.branchPred.indirectHits                127                       # Number of indirect target hits.
system.cpu.branchPred.indirectLookups             398                       # Number of indirect predictor lookups.
system.cpu.branchPred.indirectMisses              271                       # Number of indirect misses.
system.cpu.branchPred.lookups                  716799                       # Number of BP lookups
system.cpu.branchPred.usedRAS                    6950                       # Number of times the RAS was used to get a target.
system.cpu.branchPredindirectMispredicted          171                       # Number of mispredicted indirect branches.
system.cpu.committedInsts                    10000000                       # Number of instructions committed
system.cpu.committedOps                      10028308                       # Number of ops (including micro ops) committed
system.cpu.cpi                               2.718931                       # CPI: cycles per instruction
system.cpu.discardedOps                         15357                       # Number of ops (including micro ops) which were discarded before commit
system.cpu.dtb.accesses                             0                       # DTB accesses
system.cpu.dtb.align_faults                         0                       # Number of TLB faults due to alignment restrictions
system.cpu.dtb.domain_faults                        0                       # Number of TLB faults due to domain restrictions
system.cpu.dtb.flush_entries                        0                       # Number of entries that have been flushed from TLB
system.cpu.dtb.flush_tlb                            0                       # Number of times complete TLB was flushed
system.cpu.dtb.flush_tlb_asid                       0                       # Number of times TLB was flushed by ASID
system.cpu.dtb.flush_tlb_mva                        0                       # Number of times TLB was flushed by MVA
system.cpu.dtb.flush_tlb_mva_asid                   0                       # Number of times TLB was flushed by MVA & ASID
system.cpu.dtb.hits                                 0                       # DTB hits
system.cpu.dtb.inst_accesses                        0                       # ITB inst accesses
system.cpu.dtb.inst_hits                            0                       # ITB inst hits
system.cpu.dtb.inst_misses                          0                       # ITB inst misses
system.cpu.dtb.misses                               0                       # DTB misses
system.cpu.dtb.perms_faults                         0                       # Number of TLB faults due to permissions restrictions
system.cpu.dtb.prefetch_faults                      0                       # Number of TLB faults due to prefetch
system.cpu.dtb.read_accesses                        0                       # DTB read accesses
system.cpu.dtb.read_hits                            0                       # DTB read hits
system.cpu.dtb.read_misses                          0                       # DTB read misses
system.cpu.dtb.stage2_mmu.stage2_tlb.accesses            0                       # DTB accesses
system.cpu.dtb.stage2_mmu.stage2_tlb.align_faults            0                       # Number of TLB faults due to alignment restrictions
system.cpu.dtb.stage2_mmu.stage2_tlb.domain_faults            0                       # Number of TLB faults due to domain restrictions
system.cpu.dtb.stage2_mmu.stage2_tlb.flush_entries            0                       # Number of entries that have been flushed from TLB
system.cpu.dtb.stage2_mmu.stage2_tlb.flush_tlb            0                       # Number of times complete TLB was flushed
system.cpu.dtb.stage2_mmu.stage2_tlb.flush_tlb_asid            0                       # Number of times TLB was flushed by ASID
system.cpu.dtb.stage2_mmu.stage2_tlb.flush_tlb_mva            0                       # Number of times TLB was flushed by MVA
system.cpu.dtb.stage2_mmu.stage2_tlb.flush_tlb_mva_asid            0                       # Number of times TLB was flushed by MVA & ASID
system.cpu.dtb.stage2_mmu.stage2_tlb.hits            0                       # DTB hits
system.cpu.dtb.stage2_mmu.stage2_tlb.inst_accesses            0                       # ITB inst accesses
system.cpu.dtb.stage2_mmu.stage2_tlb.inst_hits            0                       # ITB inst hits
system.cpu.dtb.stage2_mmu.stage2_tlb.inst_misses            0                       # ITB inst misses
system.cpu.dtb.stage2_mmu.stage2_tlb.misses            0                       # DTB misses
system.cpu.dtb.stage2_mmu.stage2_tlb.perms_faults            0                       # Number of TLB faults due to permissions restrictions
system.cpu.dtb.stage2_mmu.stage2_tlb.prefetch_faults            0                       # Number of TLB faults due to prefetch
system.cpu.dtb.stage2_mmu.stage2_tlb.read_accesses            0                       # DTB read accesses
system.cpu.dtb.stage2_mmu.stage2_tlb.read_hits            0                       # DTB read hits
system.cpu.dtb.stage2_mmu.stage2_tlb.read_misses            0                       # DTB read misses
system.cpu.dtb.stage2_mmu.stage2_tlb.walker.walkRequestOrigin_Requested::Data            0                       # Table walker requests started/completed, data/inst
system.cpu.dtb.stage2_mmu.stage2_tlb.walker.walkRequestOrigin_Requested::Inst            0                       # Table walker requests started/completed, data/inst
system.cpu.dtb.stage2_mmu.stage2_tlb.walker.walkRequestOrigin_Requested::total            0                       # Table walker requests started/completed, data/inst
system.cpu.dtb.stage2_mmu.stage2_tlb.walker.walkRequestOrigin_Completed::Data            0                       # Table walker requests started/completed, data/inst
system.cpu.dtb.stage2_mmu.stage2_tlb.walker.walkRequestOrigin_Completed::Inst            0                       # Table walker requests started/completed, data/inst
system.cpu.dtb.stage2_mmu.stage2_tlb.walker.walkRequestOrigin_Completed::total            0                       # Table walker requests started/completed, data/inst
system.cpu.dtb.stage2_mmu.stage2_tlb.walker.walkRequestOrigin::total            0                       # Table walker requests started/completed, data/inst
system.cpu.dtb.stage2_mmu.stage2_tlb.walker.walks            0                       # Table walker walks requested
system.cpu.dtb.stage2_mmu.stage2_tlb.write_accesses            0                       # DTB write accesses
system.cpu.dtb.stage2_mmu.stage2_tlb.write_hits            0                       # DTB write hits
system.cpu.dtb.stage2_mmu.stage2_tlb.write_misses            0                       # DTB write misses
system.cpu.dtb.walker.walkRequestOrigin_Requested::Data            0                       # Table walker requests started/completed, data/inst
system.cpu.dtb.walker.walkRequestOrigin_Requested::Inst            0                       # Table walker requests started/completed, data/inst
system.cpu.dtb.walker.walkRequestOrigin_Requested::total            0                       # Table walker requests started/completed, data/inst
system.cpu.dtb.walker.walkRequestOrigin_Completed::Data            0                       # Table walker requests started/completed, data/inst
system.cpu.dtb.walker.walkRequestOrigin_Completed::Inst            0                       # Table walker requests started/completed, data/inst
system.cpu.dtb.walker.walkRequestOrigin_Completed::total            0                       # Table walker requests started/completed, data/inst
system.cpu.dtb.walker.walkRequestOrigin::total            0                       # Table walker requests started/completed, data/inst
system.cpu.dtb.walker.walks                         0                       # Table walker walks requested
system.cpu.dtb.write_accesses                       0                       # DTB write accesses
system.cpu.dtb.write_hits                           0                       # DTB write hits
system.cpu.dtb.write_misses                         0                       # DTB write misses
system.cpu.fetch2.amo_instructions                  0                       # Number of memory atomic instructions successfully decoded
system.cpu.fetch2.fp_instructions                   0                       # Number of floating point instructions successfully decoded
system.cpu.fetch2.int_instructions            2169332                       # Number of integer instructions successfully decoded
system.cpu.fetch2.load_instructions           5801052                       # Number of memory load instructions successfully decoded
system.cpu.fetch2.store_instructions          1454399                       # Number of memory store instructions successfully decoded
system.cpu.fetch2.vec_instructions                  0                       # Number of SIMD instructions successfully decoded
system.cpu.idleCycles                        12679166                       # Total number of cycles that the object has spent stopped
system.cpu.ipc                               0.367792                       # IPC: instructions per cycle
system.cpu.itb.accesses                             0                       # DTB accesses
system.cpu.itb.align_faults                         0                       # Number of TLB faults due to alignment restrictions
system.cpu.itb.domain_faults                        0                       # Number of TLB faults due to domain restrictions
system.cpu.itb.flush_entries                        0                       # Number of entries that have been flushed from TLB
system.cpu.itb.flush_tlb                            0                       # Number of times complete TLB was flushed
system.cpu.itb.flush_tlb_asid                       0                       # Number of times TLB was flushed by ASID
system.cpu.itb.flush_tlb_mva                        0                       # Number of times TLB was flushed by MVA
system.cpu.itb.flush_tlb_mva_asid                   0                       # Number of times TLB was flushed by MVA & ASID
system.cpu.itb.hits                                 0                       # DTB hits
system.cpu.itb.inst_accesses                        0                       # ITB inst accesses
system.cpu.itb.inst_hits                            0                       # ITB inst hits
system.cpu.itb.inst_misses                          0                       # ITB inst misses
system.cpu.itb.misses                               0                       # DTB misses
system.cpu.itb.perms_faults                         0                       # Number of TLB faults due to permissions restrictions
system.cpu.itb.prefetch_faults                      0                       # Number of TLB faults due to prefetch
system.cpu.itb.read_accesses                        0                       # DTB read accesses
system.cpu.itb.read_hits                            0                       # DTB read hits
system.cpu.itb.read_misses                          0                       # DTB read misses
system.cpu.itb.stage2_mmu.stage2_tlb.accesses            0                       # DTB accesses
system.cpu.itb.stage2_mmu.stage2_tlb.align_faults            0                       # Number of TLB faults due to alignment restrictions
system.cpu.itb.stage2_mmu.stage2_tlb.domain_faults            0                       # Number of TLB faults due to domain restrictions
system.cpu.itb.stage2_mmu.stage2_tlb.flush_entries            0                       # Number of entries that have been flushed from TLB
system.cpu.itb.stage2_mmu.stage2_tlb.flush_tlb            0                       # Number of times complete TLB was flushed
system.cpu.itb.stage2_mmu.stage2_tlb.flush_tlb_asid            0                       # Number of times TLB was flushed by ASID
system.cpu.itb.stage2_mmu.stage2_tlb.flush_tlb_mva            0                       # Number of times TLB was flushed by MVA
system.cpu.itb.stage2_mmu.stage2_tlb.flush_tlb_mva_asid            0                       # Number of times TLB was flushed by MVA & ASID
system.cpu.itb.stage2_mmu.stage2_tlb.hits            0                       # DTB hits
system.cpu.itb.stage2_mmu.stage2_tlb.inst_accesses            0                       # ITB inst accesses
system.cpu.itb.stage2_mmu.stage2_tlb.inst_hits            0                       # ITB inst hits
system.cpu.itb.stage2_mmu.stage2_tlb.inst_misses            0                       # ITB inst misses
system.cpu.itb.stage2_mmu.stage2_tlb.misses            0                       # DTB misses
system.cpu.itb.stage2_mmu.stage2_tlb.perms_faults            0                       # Number of TLB faults due to permissions restrictions
system.cpu.itb.stage2_mmu.stage2_tlb.prefetch_faults            0                       # Number of TLB faults due to prefetch
system.cpu.itb.stage2_mmu.stage2_tlb.read_accesses            0                       # DTB read accesses
system.cpu.itb.stage2_mmu.stage2_tlb.read_hits            0                       # DTB read hits
system.cpu.itb.stage2_mmu.stage2_tlb.read_misses            0                       # DTB read misses
system.cpu.itb.stage2_mmu.stage2_tlb.walker.walkRequestOrigin_Requested::Data            0                       # Table walker requests started/completed, data/inst
system.cpu.itb.stage2_mmu.stage2_tlb.walker.walkRequestOrigin_Requested::Inst            0                       # Table walker requests started/completed, data/inst
system.cpu.itb.stage2_mmu.stage2_tlb.walker.walkRequestOrigin_Requested::total            0                       # Table walker requests started/completed, data/inst
system.cpu.itb.stage2_mmu.stage2_tlb.walker.walkRequestOrigin_Completed::Data            0                       # Table walker requests started/completed, data/inst
system.cpu.itb.stage2_mmu.stage2_tlb.walker.walkRequestOrigin_Completed::Inst            0                       # Table walker requests started/completed, data/inst
system.cpu.itb.stage2_mmu.stage2_tlb.walker.walkRequestOrigin_Completed::total            0                       # Table walker requests started/completed, data/inst
system.cpu.itb.stage2_mmu.stage2_tlb.walker.walkRequestOrigin::total            0                       # Table walker requests started/completed, data/inst
system.cpu.itb.stage2_mmu.stage2_tlb.walker.walks            0                       # Table walker walks requested
system.cpu.itb.stage2_mmu.stage2_tlb.write_accesses            0                       # DTB write accesses
system.cpu.itb.stage2_mmu.stage2_tlb.write_hits            0                       # DTB write hits
system.cpu.itb.stage2_mmu.stage2_tlb.write_misses            0                       # DTB write misses
system.cpu.itb.walker.walkRequestOrigin_Requested::Data            0                       # Table walker requests started/completed, data/inst
system.cpu.itb.walker.walkRequestOrigin_Requested::Inst            0                       # Table walker requests started/completed, data/inst
system.cpu.itb.walker.walkRequestOrigin_Requested::total            0                       # Table walker requests started/completed, data/inst
system.cpu.itb.walker.walkRequestOrigin_Completed::Data            0                       # Table walker requests started/completed, data/inst
system.cpu.itb.walker.walkRequestOrigin_Completed::Inst            0                       # Table walker requests started/completed, data/inst
system.cpu.itb.walker.walkRequestOrigin_Completed::total            0                       # Table walker requests started/completed, data/inst
system.cpu.itb.walker.walkRequestOrigin::total            0                       # Table walker requests started/completed, data/inst
system.cpu.itb.walker.walks                         0                       # Table walker walks requested
system.cpu.itb.write_accesses                       0                       # DTB write accesses
system.cpu.itb.write_hits                           0                       # DTB write hits
system.cpu.itb.write_misses                         0                       # DTB write misses
system.cpu.numCycles                         27189312                       # number of cpu cycles simulated
system.cpu.numFetchSuspends                         0                       # Number of times Execute suspended instruction fetching
system.cpu.numWorkItemsCompleted                    0                       # number of work items this cpu completed
system.cpu.numWorkItemsStarted                      0                       # number of work items this cpu started
system.cpu.op_class_0::No_OpClass                   0      0.00%      0.00% # Class of committed instruction
system.cpu.op_class_0::IntAlu                 2830128     28.22%     28.22% # Class of committed instruction
system.cpu.op_class_0::IntMult                  20549      0.20%     28.43% # Class of committed instruction
system.cpu.op_class_0::IntDiv                       0      0.00%     28.43% # Class of committed instruction
system.cpu.op_class_0::FloatAdd                     0      0.00%     28.43% # Class of committed instruction
system.cpu.op_class_0::FloatCmp                     0      0.00%     28.43% # Class of committed instruction
system.cpu.op_class_0::FloatCvt                     0      0.00%     28.43% # Class of committed instruction
system.cpu.op_class_0::FloatMult                    0      0.00%     28.43% # Class of committed instruction
system.cpu.op_class_0::FloatMultAcc                 0      0.00%     28.43% # Class of committed instruction
system.cpu.op_class_0::FloatDiv                     0      0.00%     28.43% # Class of committed instruction
system.cpu.op_class_0::FloatMisc                    0      0.00%     28.43% # Class of committed instruction
system.cpu.op_class_0::FloatSqrt                    0      0.00%     28.43% # Class of committed instruction
system.cpu.op_class_0::SimdAdd                      0      0.00%     28.43% # Class of committed instruction
system.cpu.op_class_0::SimdAddAcc                   0      0.00%     28.43% # Class of committed instruction
system.cpu.op_class_0::SimdAlu                      0      0.00%     28.43% # Class of committed instruction
system.cpu.op_class_0::SimdCmp                      0      0.00%     28.43% # Class of committed instruction
system.cpu.op_class_0::SimdCvt                      0      0.00%     28.43% # Class of committed instruction
system.cpu.op_class_0::SimdMisc                     0      0.00%     28.43% # Class of committed instruction
system.cpu.op_class_0::SimdMult                     0      0.00%     28.43% # Class of committed instruction
system.cpu.op_class_0::SimdMultAcc                  0      0.00%     28.43% # Class of committed instruction
system.cpu.op_class_0::SimdShift                    0      0.00%     28.43% # Class of committed instruction
system.cpu.op_class_0::SimdShiftAcc                 0      0.00%     28.43% # Class of committed instruction
system.cpu.op_class_0::SimdDiv                      0      0.00%     28.43% # Class of committed instruction
system.cpu.op_class_0::SimdSqrt                     0      0.00%     28.43% # Class of committed instruction
system.cpu.op_class_0::SimdFloatAdd                 0      0.00%     28.43% # Class of committed instruction
system.cpu.op_class_0::SimdFloatAlu                 0      0.00%     28.43% # Class of committed instruction
system.cpu.op_class_0::SimdFloatCmp                 0      0.00%     28.43% # Class of committed instruction
system.cpu.op_class_0::SimdFloatCvt                 0      0.00%     28.43% # Class of committed instruction
system.cpu.op_class_0::SimdFloatDiv                 0      0.00%     28.43% # Class of committed instruction
system.cpu.op_class_0::SimdFloatMisc               18      0.00%     28.43% # Class of committed instruction
system.cpu.op_class_0::SimdFloatMult                0      0.00%     28.43% # Class of committed instruction
system.cpu.op_class_0::SimdFloatMultAcc             0      0.00%     28.43% # Class of committed instruction
system.cpu.op_class_0::SimdFloatSqrt                0      0.00%     28.43% # Class of committed instruction
system.cpu.op_class_0::SimdReduceAdd                0      0.00%     28.43% # Class of committed instruction
system.cpu.op_class_0::SimdReduceAlu                0      0.00%     28.43% # Class of committed instruction
system.cpu.op_class_0::SimdReduceCmp                0      0.00%     28.43% # Class of committed instruction
system.cpu.op_class_0::SimdFloatReduceAdd            0      0.00%     28.43% # Class of committed instruction
system.cpu.op_class_0::SimdFloatReduceCmp            0      0.00%     28.43% # Class of committed instruction
system.cpu.op_class_0::SimdAes                      0      0.00%     28.43% # Class of committed instruction
system.cpu.op_class_0::SimdAesMix                   0      0.00%     28.43% # Class of committed instruction
system.cpu.op_class_0::SimdSha1Hash                 0      0.00%     28.43% # Class of committed instruction
system.cpu.op_class_0::SimdSha1Hash2                0      0.00%     28.43% # Class of committed instruction
system.cpu.op_class_0::SimdSha256Hash               0      0.00%     28.43% # Class of committed instruction
system.cpu.op_class_0::SimdSha256Hash2              0      0.00%     28.43% # Class of committed instruction
system.cpu.op_class_0::SimdShaSigma2                0      0.00%     28.43% # Class of committed instruction
system.cpu.op_class_0::SimdShaSigma3                0      0.00%     28.43% # Class of committed instruction
system.cpu.op_class_0::SimdPredAlu                  0      0.00%     28.43% # Class of committed instruction
system.cpu.op_class_0::MemRead                5721911     57.06%     85.48% # Class of committed instruction
system.cpu.op_class_0::MemWrite               1455702     14.52%    100.00% # Class of committed instruction
system.cpu.op_class_0::FloatMemRead                 0      0.00%    100.00% # Class of committed instruction
system.cpu.op_class_0::FloatMemWrite                0      0.00%    100.00% # Class of committed instruction
system.cpu.op_class_0::IprAccess                    0      0.00%    100.00% # Class of committed instruction
system.cpu.op_class_0::InstPrefetch                 0      0.00%    100.00% # Class of committed instruction
system.cpu.op_class_0::total                 10028308                       # Class of committed instruction
system.cpu.tickCycles                        14510146                       # Number of cycles that the object actually ticked
system.cpu.workload.numSyscalls                    84                       # Number of system calls
system.membus.snoop_filter.hit_multi_requests            0                       # Number of requests hitting in the snoop filter with multiple (>1) holders of the requested data.
system.membus.snoop_filter.hit_multi_snoops            0                       # Number of snoops hitting in the snoop filter with multiple (>1) holders of the requested data.
system.membus.snoop_filter.hit_single_requests       111096                       # Number of requests hitting in the snoop filter with a single holder of the requested data.
system.membus.snoop_filter.hit_single_snoops            0                       # Number of snoops hitting in the snoop filter with a single holder of the requested data.
system.membus.snoop_filter.tot_requests        231197                       # Total number of requests made to the snoop filter.
system.membus.snoop_filter.tot_snoops               0                       # Total number of snoops made to the snoop filter.
system.tol2bus.snoop_filter.hit_multi_requests           34                       # Number of requests hitting in the snoop filter with multiple (>1) holders of the requested data.
system.tol2bus.snoop_filter.hit_multi_snoops            1                       # Number of snoops hitting in the snoop filter with multiple (>1) holders of the requested data.
system.tol2bus.snoop_filter.hit_single_requests       115790                       # Number of requests hitting in the snoop filter with a single holder of the requested data.
system.tol2bus.snoop_filter.hit_single_snoops        48631                       # Number of snoops hitting in the snoop filter with a single holder of the requested data.
system.tol2bus.snoop_filter.tot_requests       236189                       # Total number of requests made to the snoop filter.
system.tol2bus.snoop_filter.tot_snoops          48632                       # Total number of snoops made to the snoop filter.
system.membus.pwrStateResidencyTicks::UNDEFINED  13594656000                       # Cumulative time (in ticks) in various power states
system.membus.trans_dist::ReadResp              49867                       # Transaction distribution
system.membus.trans_dist::WritebackDirty        68236                       # Transaction distribution
system.membus.trans_dist::CleanEvict            42849                       # Transaction distribution
system.membus.trans_dist::ReadExReq             70245                       # Transaction distribution
system.membus.trans_dist::ReadExResp            70245                       # Transaction distribution
system.membus.trans_dist::ReadSharedReq         49867                       # Transaction distribution
system.membus.pkt_count_system.l2.mem_side::system.mem_ctrls.port       351309                       # Packet count per connected master and slave (bytes)
system.membus.pkt_count::total                 351309                       # Packet count per connected master and slave (bytes)
system.membus.pkt_size_system.l2.mem_side::system.mem_ctrls.port     12054272                       # Cumulative packet size per connected master and slave (bytes)
system.membus.pkt_size::total                12054272                       # Cumulative packet size per connected master and slave (bytes)
system.membus.snoops                                0                       # Total snoops (count)
system.membus.snoopTraffic                          0                       # Total snoop traffic (bytes)
system.membus.snoop_fanout::samples            120112                       # Request fanout histogram
system.membus.snoop_fanout::mean                    0                       # Request fanout histogram
system.membus.snoop_fanout::stdev                   0                       # Request fanout histogram
system.membus.snoop_fanout::underflows              0      0.00%      0.00% # Request fanout histogram
system.membus.snoop_fanout::0                  120112    100.00%    100.00% # Request fanout histogram
system.membus.snoop_fanout::1                       0      0.00%    100.00% # Request fanout histogram
system.membus.snoop_fanout::overflows               0      0.00%    100.00% # Request fanout histogram
system.membus.snoop_fanout::min_value               0                       # Request fanout histogram
system.membus.snoop_fanout::max_value               0                       # Request fanout histogram
system.membus.snoop_fanout::total              120112                       # Request fanout histogram
system.membus.respLayer1.occupancy          642449250                       # Layer occupancy (ticks)
system.membus.respLayer1.utilization              4.7                       # Layer utilization (%)
system.membus.reqLayer0.occupancy           513073500                       # Layer occupancy (ticks)
system.membus.reqLayer0.utilization               3.8                       # Layer utilization (%)
system.tol2bus.pwrStateResidencyTicks::UNDEFINED  13594656000                       # Cumulative time (in ticks) in various power states
system.tol2bus.trans_dist::ReadResp             50163                       # Transaction distribution
system.tol2bus.trans_dist::WritebackDirty       136990                       # Transaction distribution
system.tol2bus.trans_dist::CleanEvict          129046                       # Transaction distribution
system.tol2bus.trans_dist::ReadExReq            70246                       # Transaction distribution
system.tol2bus.trans_dist::ReadExResp           70246                       # Transaction distribution
system.tol2bus.trans_dist::ReadCleanReq           533                       # Transaction distribution
system.tol2bus.trans_dist::ReadSharedReq        49630                       # Transaction distribution
system.tol2bus.pkt_count_system.cpu.icache.mem_side::system.l2.cpu_side         1066                       # Packet count per connected master and slave (bytes)
system.tol2bus.pkt_count_system.cpu.dcache.mem_side::system.l2.cpu_side       355532                       # Packet count per connected master and slave (bytes)
system.tol2bus.pkt_count::total                356598                       # Packet count per connected master and slave (bytes)
system.tol2bus.pkt_size_system.cpu.icache.mem_side::system.l2.cpu_side        34112                       # Cumulative packet size per connected master and slave (bytes)
system.tol2bus.pkt_size_system.cpu.dcache.mem_side::system.l2.cpu_side     12072320                       # Cumulative packet size per connected master and slave (bytes)
system.tol2bus.pkt_size::total               12106432                       # Cumulative packet size per connected master and slave (bytes)
system.tol2bus.snoops                          150256                       # Total snoops (count)
system.tol2bus.snoopTraffic                   4367104                       # Total snoop traffic (bytes)
system.tol2bus.snoop_fanout::samples           270665                       # Request fanout histogram
system.tol2bus.snoop_fanout::mean            0.179842                       # Request fanout histogram
system.tol2bus.snoop_fanout::stdev           0.384066                       # Request fanout histogram
system.tol2bus.snoop_fanout::underflows             0      0.00%      0.00% # Request fanout histogram
system.tol2bus.snoop_fanout::0                 221989     82.02%     82.02% # Request fanout histogram
system.tol2bus.snoop_fanout::1                  48675     17.98%    100.00% # Request fanout histogram
system.tol2bus.snoop_fanout::2                      1      0.00%    100.00% # Request fanout histogram
system.tol2bus.snoop_fanout::overflows              0      0.00%    100.00% # Request fanout histogram
system.tol2bus.snoop_fanout::min_value              0                       # Request fanout histogram
system.tol2bus.snoop_fanout::max_value              2                       # Request fanout histogram
system.tol2bus.snoop_fanout::total             270665                       # Request fanout histogram
system.tol2bus.reqLayer0.occupancy          186848500                       # Layer occupancy (ticks)
system.tol2bus.reqLayer0.utilization              1.4                       # Layer utilization (%)
system.tol2bus.respLayer1.occupancy         179815497                       # Layer occupancy (ticks)
system.tol2bus.respLayer1.utilization             1.3                       # Layer utilization (%)
system.tol2bus.respLayer0.occupancy            799500                       # Layer occupancy (ticks)
system.tol2bus.respLayer0.utilization             0.0                       # Layer utilization (%)
system.voltage_domain.voltage                       1                       # Voltage in Volts
system.clk_domain.clock                          1000                       # Clock period in ticks
system.l2.pwrStateResidencyTicks::UNDEFINED  13594656000                       # Cumulative time (in ticks) in various power states
system.l2.demand_hits::.cpu.inst                   15                       # number of demand (read+write) hits
system.l2.demand_hits::.cpu.data                  279                       # number of demand (read+write) hits
system.l2.demand_hits::total                      294                       # number of demand (read+write) hits
system.l2.overall_hits::.cpu.inst                  15                       # number of overall hits
system.l2.overall_hits::.cpu.data                 279                       # number of overall hits
system.l2.overall_hits::total                     294                       # number of overall hits
system.l2.demand_misses::.cpu.inst                518                       # number of demand (read+write) misses
system.l2.demand_misses::.cpu.data             119597                       # number of demand (read+write) misses
system.l2.demand_misses::total                 120115                       # number of demand (read+write) misses
system.l2.overall_misses::.cpu.inst               518                       # number of overall misses
system.l2.overall_misses::.cpu.data            119597                       # number of overall misses
system.l2.overall_misses::total                120115                       # number of overall misses
system.l2.demand_miss_latency::.cpu.inst     39622000                       # number of demand (read+write) miss cycles
system.l2.demand_miss_latency::.cpu.data   9962665000                       # number of demand (read+write) miss cycles
system.l2.demand_miss_latency::total      10002287000                       # number of demand (read+write) miss cycles
system.l2.overall_miss_latency::.cpu.inst     39622000                       # number of overall miss cycles
system.l2.overall_miss_latency::.cpu.data   9962665000                       # number of overall miss cycles
system.l2.overall_miss_latency::total     10002287000                       # number of overall miss cycles
system.l2.demand_accesses::.cpu.inst              533                       # number of demand (read+write) accesses
system.l2.demand_accesses::.cpu.data           119876                       # number of demand (read+write) accesses
system.l2.demand_accesses::total               120409                       # number of demand (read+write) accesses
system.l2.overall_accesses::.cpu.inst             533                       # number of overall (read+write) accesses
system.l2.overall_accesses::.cpu.data          119876                       # number of overall (read+write) accesses
system.l2.overall_accesses::total              120409                       # number of overall (read+write) accesses
system.l2.demand_miss_rate::.cpu.inst        0.971857                       # miss rate for demand accesses
system.l2.demand_miss_rate::.cpu.data        0.997673                       # miss rate for demand accesses
system.l2.demand_miss_rate::total            0.997558                       # miss rate for demand accesses
system.l2.overall_miss_rate::.cpu.inst       0.971857                       # miss rate for overall accesses
system.l2.overall_miss_rate::.cpu.data       0.997673                       # miss rate for overall accesses
system.l2.overall_miss_rate::total           0.997558                       # miss rate for overall accesses
system.l2.demand_avg_miss_latency::.cpu.inst 76490.347490                       # average overall miss latency
system.l2.demand_avg_miss_latency::.cpu.data 83301.964096                       # average overall miss latency
system.l2.demand_avg_miss_latency::total 83272.588769                       # average overall miss latency
system.l2.overall_avg_miss_latency::.cpu.inst 76490.347490                       # average overall miss latency
system.l2.overall_avg_miss_latency::.cpu.data 83301.964096                       # average overall miss latency
system.l2.overall_avg_miss_latency::total 83272.588769                       # average overall miss latency
system.l2.blocked_cycles::no_mshrs                  0                       # number of cycles access was blocked
system.l2.blocked_cycles::no_targets                0                       # number of cycles access was blocked
system.l2.blocked::no_mshrs                         0                       # number of cycles access was blocked
system.l2.blocked::no_targets                       0                       # number of cycles access was blocked
system.l2.avg_blocked_cycles::no_mshrs            nan                       # average number of cycles each access was blocked
system.l2.avg_blocked_cycles::no_targets          nan                       # average number of cycles each access was blocked
system.l2.writebacks::.writebacks               68236                       # number of writebacks
system.l2.writebacks::total                     68236                       # number of writebacks
system.l2.demand_mshr_hits::.cpu.data               3                       # number of demand (read+write) MSHR hits
system.l2.demand_mshr_hits::total                   3                       # number of demand (read+write) MSHR hits
system.l2.overall_mshr_hits::.cpu.data              3                       # number of overall MSHR hits
system.l2.overall_mshr_hits::total                  3                       # number of overall MSHR hits
system.l2.demand_mshr_misses::.cpu.inst           518                       # number of demand (read+write) MSHR misses
system.l2.demand_mshr_misses::.cpu.data        119594                       # number of demand (read+write) MSHR misses
system.l2.demand_mshr_misses::total            120112                       # number of demand (read+write) MSHR misses
system.l2.overall_mshr_misses::.cpu.inst          518                       # number of overall MSHR misses
system.l2.overall_mshr_misses::.cpu.data       119594                       # number of overall MSHR misses
system.l2.overall_mshr_misses::total           120112                       # number of overall MSHR misses
system.l2.demand_mshr_miss_latency::.cpu.inst     34442000                       # number of demand (read+write) MSHR miss cycles
system.l2.demand_mshr_miss_latency::.cpu.data   8766527000                       # number of demand (read+write) MSHR miss cycles
system.l2.demand_mshr_miss_latency::total   8800969000                       # number of demand (read+write) MSHR miss cycles
system.l2.overall_mshr_miss_latency::.cpu.inst     34442000                       # number of overall MSHR miss cycles
system.l2.overall_mshr_miss_latency::.cpu.data   8766527000                       # number of overall MSHR miss cycles
system.l2.overall_mshr_miss_latency::total   8800969000                       # number of overall MSHR miss cycles
system.l2.demand_mshr_miss_rate::.cpu.inst     0.971857                       # mshr miss rate for demand accesses
system.l2.demand_mshr_miss_rate::.cpu.data     0.997648                       # mshr miss rate for demand accesses
system.l2.demand_mshr_miss_rate::total       0.997533                       # mshr miss rate for demand accesses
system.l2.overall_mshr_miss_rate::.cpu.inst     0.971857                       # mshr miss rate for overall accesses
system.l2.overall_mshr_miss_rate::.cpu.data     0.997648                       # mshr miss rate for overall accesses
system.l2.overall_mshr_miss_rate::total      0.997533                       # mshr miss rate for overall accesses
system.l2.demand_avg_mshr_miss_latency::.cpu.inst 66490.347490                       # average overall mshr miss latency
system.l2.demand_avg_mshr_miss_latency::.cpu.data 73302.398114                       # average overall mshr miss latency
system.l2.demand_avg_mshr_miss_latency::total 73273.020181                       # average overall mshr miss latency
system.l2.overall_avg_mshr_miss_latency::.cpu.inst 66490.347490                       # average overall mshr miss latency
system.l2.overall_avg_mshr_miss_latency::.cpu.data 73302.398114                       # average overall mshr miss latency
system.l2.overall_avg_mshr_miss_latency::total 73273.020181                       # average overall mshr miss latency
system.l2.replacements                         150256                       # number of replacements
system.l2.WritebackDirty_hits::.writebacks        68754                       # number of WritebackDirty hits
system.l2.WritebackDirty_hits::total            68754                       # number of WritebackDirty hits
system.l2.WritebackDirty_accesses::.writebacks        68754                       # number of WritebackDirty accesses(hits+misses)
system.l2.WritebackDirty_accesses::total        68754                       # number of WritebackDirty accesses(hits+misses)
system.l2.CleanEvict_mshr_misses::.writebacks         9461                       # number of CleanEvict MSHR misses
system.l2.CleanEvict_mshr_misses::total          9461                       # number of CleanEvict MSHR misses
system.l2.CleanEvict_mshr_miss_rate::.writebacks          inf                       # mshr miss rate for CleanEvict accesses
system.l2.CleanEvict_mshr_miss_rate::total          inf                       # mshr miss rate for CleanEvict accesses
system.l2.ReadExReq_hits::.cpu.data                 1                       # number of ReadExReq hits
system.l2.ReadExReq_hits::total                     1                       # number of ReadExReq hits
system.l2.ReadExReq_misses::.cpu.data           70245                       # number of ReadExReq misses
system.l2.ReadExReq_misses::total               70245                       # number of ReadExReq misses
system.l2.ReadExReq_miss_latency::.cpu.data   6111956500                       # number of ReadExReq miss cycles
system.l2.ReadExReq_miss_latency::total    6111956500                       # number of ReadExReq miss cycles
system.l2.ReadExReq_accesses::.cpu.data         70246                       # number of ReadExReq accesses(hits+misses)
system.l2.ReadExReq_accesses::total             70246                       # number of ReadExReq accesses(hits+misses)
system.l2.ReadExReq_miss_rate::.cpu.data     0.999986                       # miss rate for ReadExReq accesses
system.l2.ReadExReq_miss_rate::total         0.999986                       # miss rate for ReadExReq accesses
system.l2.ReadExReq_avg_miss_latency::.cpu.data 87009.132323                       # average ReadExReq miss latency
system.l2.ReadExReq_avg_miss_latency::total 87009.132323                       # average ReadExReq miss latency
system.l2.ReadExReq_mshr_misses::.cpu.data        70245                       # number of ReadExReq MSHR misses
system.l2.ReadExReq_mshr_misses::total          70245                       # number of ReadExReq MSHR misses
system.l2.ReadExReq_mshr_miss_latency::.cpu.data   5409506500                       # number of ReadExReq MSHR miss cycles
system.l2.ReadExReq_mshr_miss_latency::total   5409506500                       # number of ReadExReq MSHR miss cycles
system.l2.ReadExReq_mshr_miss_rate::.cpu.data     0.999986                       # mshr miss rate for ReadExReq accesses
system.l2.ReadExReq_mshr_miss_rate::total     0.999986                       # mshr miss rate for ReadExReq accesses
system.l2.ReadExReq_avg_mshr_miss_latency::.cpu.data 77009.132323                       # average ReadExReq mshr miss latency
system.l2.ReadExReq_avg_mshr_miss_latency::total 77009.132323                       # average ReadExReq mshr miss latency
system.l2.ReadCleanReq_hits::.cpu.inst             15                       # number of ReadCleanReq hits
system.l2.ReadCleanReq_hits::total                 15                       # number of ReadCleanReq hits
system.l2.ReadCleanReq_misses::.cpu.inst          518                       # number of ReadCleanReq misses
system.l2.ReadCleanReq_misses::total              518                       # number of ReadCleanReq misses
system.l2.ReadCleanReq_miss_latency::.cpu.inst     39622000                       # number of ReadCleanReq miss cycles
system.l2.ReadCleanReq_miss_latency::total     39622000                       # number of ReadCleanReq miss cycles
system.l2.ReadCleanReq_accesses::.cpu.inst          533                       # number of ReadCleanReq accesses(hits+misses)
system.l2.ReadCleanReq_accesses::total            533                       # number of ReadCleanReq accesses(hits+misses)
system.l2.ReadCleanReq_miss_rate::.cpu.inst     0.971857                       # miss rate for ReadCleanReq accesses
system.l2.ReadCleanReq_miss_rate::total      0.971857                       # miss rate for ReadCleanReq accesses
system.l2.ReadCleanReq_avg_miss_latency::.cpu.inst 76490.347490                       # average ReadCleanReq miss latency
system.l2.ReadCleanReq_avg_miss_latency::total 76490.347490                       # average ReadCleanReq miss latency
system.l2.ReadCleanReq_mshr_misses::.cpu.inst          518                       # number of ReadCleanReq MSHR misses
system.l2.ReadCleanReq_mshr_misses::total          518                       # number of ReadCleanReq MSHR misses
system.l2.ReadCleanReq_mshr_miss_latency::.cpu.inst     34442000                       # number of ReadCleanReq MSHR miss cycles
system.l2.ReadCleanReq_mshr_miss_latency::total     34442000                       # number of ReadCleanReq MSHR miss cycles
system.l2.ReadCleanReq_mshr_miss_rate::.cpu.inst     0.971857                       # mshr miss rate for ReadCleanReq accesses
system.l2.ReadCleanReq_mshr_miss_rate::total     0.971857                       # mshr miss rate for ReadCleanReq accesses
system.l2.ReadCleanReq_avg_mshr_miss_latency::.cpu.inst 66490.347490                       # average ReadCleanReq mshr miss latency
system.l2.ReadCleanReq_avg_mshr_miss_latency::total 66490.347490                       # average ReadCleanReq mshr miss latency
system.l2.ReadSharedReq_hits::.cpu.data           278                       # number of ReadSharedReq hits
system.l2.ReadSharedReq_hits::total               278                       # number of ReadSharedReq hits
system.l2.ReadSharedReq_misses::.cpu.data        49352                       # number of ReadSharedReq misses
system.l2.ReadSharedReq_misses::total           49352                       # number of ReadSharedReq misses
system.l2.ReadSharedReq_miss_latency::.cpu.data   3850708500                       # number of ReadSharedReq miss cycles
system.l2.ReadSharedReq_miss_latency::total   3850708500                       # number of ReadSharedReq miss cycles
system.l2.ReadSharedReq_accesses::.cpu.data        49630                       # number of ReadSharedReq accesses(hits+misses)
system.l2.ReadSharedReq_accesses::total         49630                       # number of ReadSharedReq accesses(hits+misses)
system.l2.ReadSharedReq_miss_rate::.cpu.data     0.994399                       # miss rate for ReadSharedReq accesses
system.l2.ReadSharedReq_miss_rate::total     0.994399                       # miss rate for ReadSharedReq accesses
system.l2.ReadSharedReq_avg_miss_latency::.cpu.data 78025.378911                       # average ReadSharedReq miss latency
system.l2.ReadSharedReq_avg_miss_latency::total 78025.378911                       # average ReadSharedReq miss latency
system.l2.ReadSharedReq_mshr_hits::.cpu.data            3                       # number of ReadSharedReq MSHR hits
system.l2.ReadSharedReq_mshr_hits::total            3                       # number of ReadSharedReq MSHR hits
system.l2.ReadSharedReq_mshr_misses::.cpu.data        49349                       # number of ReadSharedReq MSHR misses
system.l2.ReadSharedReq_mshr_misses::total        49349                       # number of ReadSharedReq MSHR misses
system.l2.ReadSharedReq_mshr_miss_latency::.cpu.data   3357020500                       # number of ReadSharedReq MSHR miss cycles
system.l2.ReadSharedReq_mshr_miss_latency::total   3357020500                       # number of ReadSharedReq MSHR miss cycles
system.l2.ReadSharedReq_mshr_miss_rate::.cpu.data     0.994338                       # mshr miss rate for ReadSharedReq accesses
system.l2.ReadSharedReq_mshr_miss_rate::total     0.994338                       # mshr miss rate for ReadSharedReq accesses
system.l2.ReadSharedReq_avg_mshr_miss_latency::.cpu.data 68026.109952                       # average ReadSharedReq mshr miss latency
system.l2.ReadSharedReq_avg_mshr_miss_latency::total 68026.109952                       # average ReadSharedReq mshr miss latency
system.l2.tags.pwrStateResidencyTicks::UNDEFINED  13594656000                       # Cumulative time (in ticks) in various power states
system.l2.tags.tagsinuse                  7212.947646                       # Cycle average of tags in use
system.l2.tags.total_refs                      226691                       # Total number of references to valid blocks.
system.l2.tags.sampled_refs                    158448                       # Sample count of references to valid blocks.
system.l2.tags.avg_refs                      1.430697                       # Average number of references to valid blocks.
system.l2.tags.warmup_cycle                     77000                       # Cycle when the warmup percentage was hit.
system.l2.tags.occ_blocks::.writebacks     473.029765                       # Average occupied blocks per requestor
system.l2.tags.occ_blocks::.cpu.inst        91.783803                       # Average occupied blocks per requestor
system.l2.tags.occ_blocks::.cpu.data      6648.134078                       # Average occupied blocks per requestor
system.l2.tags.occ_percent::.writebacks      0.057743                       # Average percentage of cache occupancy
system.l2.tags.occ_percent::.cpu.inst        0.011204                       # Average percentage of cache occupancy
system.l2.tags.occ_percent::.cpu.data        0.811540                       # Average percentage of cache occupancy
system.l2.tags.occ_percent::total            0.880487                       # Average percentage of cache occupancy
system.l2.tags.occ_task_id_blocks::1024          8192                       # Occupied blocks per task id
system.l2.tags.age_task_id_blocks_1024::0            3                       # Occupied blocks per task id
system.l2.tags.age_task_id_blocks_1024::1           29                       # Occupied blocks per task id
system.l2.tags.age_task_id_blocks_1024::2          358                       # Occupied blocks per task id
system.l2.tags.age_task_id_blocks_1024::3         7802                       # Occupied blocks per task id
system.l2.tags.occ_task_id_percent::1024            1                       # Percentage of cache occupancy per task id
system.l2.tags.tag_accesses                   3936928                       # Number of tag accesses
system.l2.tags.data_accesses                  3936928                       # Number of data accesses
system.cpu_voltage_domain.voltage                   1                       # Voltage in Volts
system.mem_ctrls.pwrStateResidencyTicks::UNDEFINED  13594656000                       # Cumulative time (in ticks) in various power states
system.mem_ctrls.bytes_read::.cpu.inst          33152                       # Number of bytes read from this memory
system.mem_ctrls.bytes_read::.cpu.data        7654016                       # Number of bytes read from this memory
system.mem_ctrls.bytes_read::total            7687168                       # Number of bytes read from this memory
system.mem_ctrls.bytes_inst_read::.cpu.inst        33152                       # Number of instructions bytes read from this memory
system.mem_ctrls.bytes_inst_read::total         33152                       # Number of instructions bytes read from this memory
system.mem_ctrls.bytes_written::.writebacks      4367104                       # Number of bytes written to this memory
system.mem_ctrls.bytes_written::total         4367104                       # Number of bytes written to this memory
system.mem_ctrls.num_reads::.cpu.inst             518                       # Number of read requests responded to by this memory
system.mem_ctrls.num_reads::.cpu.data          119594                       # Number of read requests responded to by this memory
system.mem_ctrls.num_reads::total              120112                       # Number of read requests responded to by this memory
system.mem_ctrls.num_writes::.writebacks        68236                       # Number of write requests responded to by this memory
system.mem_ctrls.num_writes::total              68236                       # Number of write requests responded to by this memory
system.mem_ctrls.bw_read::.cpu.inst           2438605                       # Total read bandwidth from this memory (bytes/s)
system.mem_ctrls.bw_read::.cpu.data         563016526                       # Total read bandwidth from this memory (bytes/s)
system.mem_ctrls.bw_read::total             565455132                       # Total read bandwidth from this memory (bytes/s)
system.mem_ctrls.bw_inst_read::.cpu.inst      2438605                       # Instruction read bandwidth from this memory (bytes/s)
system.mem_ctrls.bw_inst_read::total          2438605                       # Instruction read bandwidth from this memory (bytes/s)
system.mem_ctrls.bw_write::.writebacks      321236815                       # Write bandwidth from this memory (bytes/s)
system.mem_ctrls.bw_write::total            321236815                       # Write bandwidth from this memory (bytes/s)
system.mem_ctrls.bw_total::.writebacks      321236815                       # Total bandwidth to/from this memory (bytes/s)
system.mem_ctrls.bw_total::.cpu.inst          2438605                       # Total bandwidth to/from this memory (bytes/s)
system.mem_ctrls.bw_total::.cpu.data        563016526                       # Total bandwidth to/from this memory (bytes/s)
system.mem_ctrls.bw_total::total            886691947                       # Total bandwidth to/from this memory (bytes/s)
system.mem_ctrls.avgPriority_.writebacks::samples     68236.00                       # Average QoS priority value for accepted requests
system.mem_ctrls.avgPriority_.cpu.inst::samples       518.00                       # Average QoS priority value for accepted requests
system.mem_ctrls.avgPriority_.cpu.data::samples    119594.00                       # Average QoS priority value for accepted requests
system.mem_ctrls.priorityMinLatency      0.000000018750                       # per QoS priority minimum request to response latency (s)
system.mem_ctrls.priorityMaxLatency      0.003093566500                       # per QoS priority maximum request to response latency (s)
system.mem_ctrls.numReadWriteTurnArounds         4255                       # Number of turnarounds from READ to WRITE
system.mem_ctrls.numWriteReadTurnArounds         4255                       # Number of turnarounds from WRITE to READ
system.mem_ctrls.numStayReadState              301499                       # Number of times bus staying in READ state
system.mem_ctrls.numStayWriteState              64060                       # Number of times bus staying in WRITE state
system.mem_ctrls.readReqs                      120112                       # Number of read requests accepted
system.mem_ctrls.writeReqs                      68236                       # Number of write requests accepted
system.mem_ctrls.readBursts                    120112                       # Number of DRAM read bursts, including those serviced by the write queue
system.mem_ctrls.writeBursts                    68236                       # Number of DRAM write bursts, including those merged in the write queue
system.mem_ctrls.servicedByWrQ                      0                       # Number of DRAM read bursts serviced by the write queue
system.mem_ctrls.mergedWrBursts                     0                       # Number of DRAM write bursts merged with an existing one
system.mem_ctrls.neitherReadNorWriteReqs            0                       # Number of requests that are neither read nor write
system.mem_ctrls.perBankRdBursts::0              7683                       # Per bank write bursts
system.mem_ctrls.perBankRdBursts::1              7588                       # Per bank write bursts
system.mem_ctrls.perBankRdBursts::2              7560                       # Per bank write bursts
system.mem_ctrls.perBankRdBursts::3              7479                       # Per bank write bursts
system.mem_ctrls.perBankRdBursts::4              7549                       # Per bank write bursts
system.mem_ctrls.perBankRdBursts::5              7471                       # Per bank write bursts
system.mem_ctrls.perBankRdBursts::6              7488                       # Per bank write bursts
system.mem_ctrls.perBankRdBursts::7              7639                       # Per bank write bursts
system.mem_ctrls.perBankRdBursts::8              7475                       # Per bank write bursts
system.mem_ctrls.perBankRdBursts::9              7416                       # Per bank write bursts
system.mem_ctrls.perBankRdBursts::10             7434                       # Per bank write bursts
system.mem_ctrls.perBankRdBursts::11             7427                       # Per bank write bursts
system.mem_ctrls.perBankRdBursts::12             7506                       # Per bank write bursts
system.mem_ctrls.perBankRdBursts::13             7469                       # Per bank write bursts
system.mem_ctrls.perBankRdBursts::14             7448                       # Per bank write bursts
system.mem_ctrls.perBankRdBursts::15             7480                       # Per bank write bursts
system.mem_ctrls.perBankWrBursts::0              4308                       # Per bank write bursts
system.mem_ctrls.perBankWrBursts::1              4331                       # Per bank write bursts
system.mem_ctrls.perBankWrBursts::2              4372                       # Per bank write bursts
system.mem_ctrls.perBankWrBursts::3              4303                       # Per bank write bursts
system.mem_ctrls.perBankWrBursts::4              4375                       # Per bank write bursts
system.mem_ctrls.perBankWrBursts::5              4330                       # Per bank write bursts
system.mem_ctrls.perBankWrBursts::6              4263                       # Per bank write bursts
system.mem_ctrls.perBankWrBursts::7              4272                       # Per bank write bursts
system.mem_ctrls.perBankWrBursts::8              4193                       # Per bank write bursts
system.mem_ctrls.perBankWrBursts::9              4221                       # Per bank write bursts
system.mem_ctrls.perBankWrBursts::10             4213                       # Per bank write bursts
system.mem_ctrls.perBankWrBursts::11             4188                       # Per bank write bursts
system.mem_ctrls.perBankWrBursts::12             4222                       # Per bank write bursts
system.mem_ctrls.perBankWrBursts::13             4188                       # Per bank write bursts
system.mem_ctrls.perBankWrBursts::14             4176                       # Per bank write bursts
system.mem_ctrls.perBankWrBursts::15             4258                       # Per bank write bursts
system.mem_ctrls.avgRdQLen                       1.38                       # Average read queue length when enqueuing
system.mem_ctrls.avgWrQLen                      25.35                       # Average write queue length when enqueuing
system.mem_ctrls.totQLat                   1550203500                       # Total ticks spent queuing
system.mem_ctrls.totBusLat                  600560000                       # Total ticks spent in databus transfers
system.mem_ctrls.totMemAccLat              3802303500                       # Total ticks spent from burst creation until serviced by the DRAM
system.mem_ctrls.avgQLat                     12906.32                       # Average queueing delay per DRAM burst
system.mem_ctrls.avgBusLat                    5000.00                       # Average bus latency per DRAM burst
system.mem_ctrls.avgMemAccLat                31656.32                       # Average memory access latency per DRAM burst
system.mem_ctrls.numRdRetry                         0                       # Number of times read queue was full causing retry
system.mem_ctrls.numWrRetry                         0                       # Number of times write queue was full causing retry
system.mem_ctrls.readRowHits                   107626                       # Number of row buffer hits during reads
system.mem_ctrls.writeRowHits                   60561                       # Number of row buffer hits during writes
system.mem_ctrls.readRowHitRate                 89.60                       # Row buffer hit rate for reads
system.mem_ctrls.writeRowHitRate                88.75                       # Row buffer hit rate for writes
system.mem_ctrls.readPktSize::0                     0                       # Read request sizes (log2)
system.mem_ctrls.readPktSize::1                     0                       # Read request sizes (log2)
system.mem_ctrls.readPktSize::2                     0                       # Read request sizes (log2)
system.mem_ctrls.readPktSize::3                     0                       # Read request sizes (log2)
system.mem_ctrls.readPktSize::4                     0                       # Read request sizes (log2)
system.mem_ctrls.readPktSize::5                     0                       # Read request sizes (log2)
system.mem_ctrls.readPktSize::6                120112                       # Read request sizes (log2)
system.mem_ctrls.writePktSize::0                    0                       # Write request sizes (log2)
system.mem_ctrls.writePktSize::1                    0                       # Write request sizes (log2)
system.mem_ctrls.writePktSize::2                    0                       # Write request sizes (log2)
system.mem_ctrls.writePktSize::3                    0                       # Write request sizes (log2)
system.mem_ctrls.writePktSize::4                    0                       # Write request sizes (log2)
system.mem_ctrls.writePktSize::5                    0                       # Write request sizes (log2)
system.mem_ctrls.writePktSize::6                68236                       # Write request sizes (log2)
system.mem_ctrls.rdQLenPdf::0                   68433                       # What read queue length does an incoming req see
system.mem_ctrls.rdQLenPdf::1                   51037                       # What read queue length does an incoming req see
system.mem_ctrls.rdQLenPdf::2                     552                       # What read queue length does an incoming req see
system.mem_ctrls.rdQLenPdf::3                      89                       # What read queue length does an incoming req see
system.mem_ctrls.rdQLenPdf::4                       1                       # What read queue length does an incoming req see
system.mem_ctrls.rdQLenPdf::5                       0                       # What read queue length does an incoming req see
system.mem_ctrls.rdQLenPdf::6                       0                       # What read queue length does an incoming req see
system.mem_ctrls.rdQLenPdf::7                       0                       # What read queue length does an incoming req see
system.mem_ctrls.rdQLenPdf::8                       0                       # What read queue length does an incoming req see
system.mem_ctrls.rdQLenPdf::9                       0                       # What read queue length does an incoming req see
system.mem_ctrls.rdQLenPdf::10                      0                       # What read queue length does an incoming req see
system.mem_ctrls.rdQLenPdf::11                      0                       # What read queue length does an incoming req see
system.mem_ctrls.rdQLenPdf::12                      0                       # What read queue length does an incoming req see
system.mem_ctrls.rdQLenPdf::13                      0                       # What read queue length does an incoming req see
system.mem_ctrls.rdQLenPdf::14                      0                       # What read queue length does an incoming req see
system.mem_ctrls.rdQLenPdf::15                      0                       # What read queue length does an incoming req see
system.mem_ctrls.rdQLenPdf::16                      0                       # What read queue length does an incoming req see
system.mem_ctrls.rdQLenPdf::17                      0                       # What read queue length does an incoming req see
system.mem_ctrls.rdQLenPdf::18                      0                       # What read queue length does an incoming req see
system.mem_ctrls.rdQLenPdf::19                      0                       # What read queue length does an incoming req see
system.mem_ctrls.rdQLenPdf::20                      0                       # What read queue length does an incoming req see
system.mem_ctrls.rdQLenPdf::21                      0                       # What read queue length does an incoming req see
system.mem_ctrls.rdQLenPdf::22                      0                       # What read queue length does an incoming req see
system.mem_ctrls.rdQLenPdf::23                      0                       # What read queue length does an incoming req see
system.mem_ctrls.rdQLenPdf::24                      0                       # What read queue length does an incoming req see
system.mem_ctrls.rdQLenPdf::25                      0                       # What read queue length does an incoming req see
system.mem_ctrls.rdQLenPdf::26                      0                       # What read queue length does an incoming req see
system.mem_ctrls.rdQLenPdf::27                      0                       # What read queue length does an incoming req see
system.mem_ctrls.rdQLenPdf::28                      0                       # What read queue length does an incoming req see
system.mem_ctrls.rdQLenPdf::29                      0                       # What read queue length does an incoming req see
system.mem_ctrls.rdQLenPdf::30                      0                       # What read queue length does an incoming req see
system.mem_ctrls.rdQLenPdf::31                      0                       # What read queue length does an incoming req see
system.mem_ctrls.wrQLenPdf::0                       1                       # What write queue length does an incoming req see
system.mem_ctrls.wrQLenPdf::1                       1                       # What write queue length does an incoming req see
system.mem_ctrls.wrQLenPdf::2                       1                       # What write queue length does an incoming req see
system.mem_ctrls.wrQLenPdf::3                       1                       # What write queue length does an incoming req see
system.mem_ctrls.wrQLenPdf::4                       1                       # What write queue length does an incoming req see
system.mem_ctrls.wrQLenPdf::5                       1                       # What write queue length does an incoming req see
system.mem_ctrls.wrQLenPdf::6                       1                       # What write queue length does an incoming req see
system.mem_ctrls.wrQLenPdf::7                       1                       # What write queue length does an incoming req see
system.mem_ctrls.wrQLenPdf::8                       1                       # What write queue length does an incoming req see
system.mem_ctrls.wrQLenPdf::9                       1                       # What write queue length does an incoming req see
system.mem_ctrls.wrQLenPdf::10                      1                       # What write queue length does an incoming req see
system.mem_ctrls.wrQLenPdf::11                      1                       # What write queue length does an incoming req see
system.mem_ctrls.wrQLenPdf::12                      1                       # What write queue length does an incoming req see
system.mem_ctrls.wrQLenPdf::13                      1                       # What write queue length does an incoming req see
system.mem_ctrls.wrQLenPdf::14                      1                       # What write queue length does an incoming req see
system.mem_ctrls.wrQLenPdf::15                     47                       # What write queue length does an incoming req see
system.mem_ctrls.wrQLenPdf::16                     57                       # What write queue length does an incoming req see
system.mem_ctrls.wrQLenPdf::17                   2253                       # What write queue length does an incoming req see
system.mem_ctrls.wrQLenPdf::18                   4396                       # What write queue length does an incoming req see
system.mem_ctrls.wrQLenPdf::19                   4296                       # What write queue length does an incoming req see
system.mem_ctrls.wrQLenPdf::20                   4308                       # What write queue length does an incoming req see
system.mem_ctrls.wrQLenPdf::21                   4320                       # What write queue length does an incoming req see
system.mem_ctrls.wrQLenPdf::22                   4338                       # What write queue length does an incoming req see
system.mem_ctrls.wrQLenPdf::23                   4278                       # What write queue length does an incoming req see
system.mem_ctrls.wrQLenPdf::24                   4586                       # What write queue length does an incoming req see
system.mem_ctrls.wrQLenPdf::25                   5139                       # What write queue length does an incoming req see
system.mem_ctrls.wrQLenPdf::26                   4513                       # What write queue length does an incoming req see
system.mem_ctrls.wrQLenPdf::27                   4276                       # What write queue length does an incoming req see
system.mem_ctrls.wrQLenPdf::28                   4341                       # What write queue length does an incoming req see
system.mem_ctrls.wrQLenPdf::29                   4284                       # What write queue length does an incoming req see
system.mem_ctrls.wrQLenPdf::30                   4261                       # What write queue length does an incoming req see
system.mem_ctrls.wrQLenPdf::31                   4262                       # What write queue length does an incoming req see
system.mem_ctrls.wrQLenPdf::32                   4255                       # What write queue length does an incoming req see
system.mem_ctrls.wrQLenPdf::33                     11                       # What write queue length does an incoming req see
system.mem_ctrls.wrQLenPdf::34                      0                       # What write queue length does an incoming req see
system.mem_ctrls.wrQLenPdf::35                      0                       # What write queue length does an incoming req see
system.mem_ctrls.wrQLenPdf::36                      0                       # What write queue length does an incoming req see
system.mem_ctrls.wrQLenPdf::37                      0                       # What write queue length does an incoming req see
system.mem_ctrls.wrQLenPdf::38                      0                       # What write queue length does an incoming req see
system.mem_ctrls.wrQLenPdf::39                      0                       # What write queue length does an incoming req see
system.mem_ctrls.wrQLenPdf::40                      0                       # What write queue length does an incoming req see
system.mem_ctrls.wrQLenPdf::41                      0                       # What write queue length does an incoming req see
system.mem_ctrls.wrQLenPdf::42                      0                       # What write queue length does an incoming req see
system.mem_ctrls.wrQLenPdf::43                      0                       # What write queue length does an incoming req see
system.mem_ctrls.wrQLenPdf::44                      0                       # What write queue length does an incoming req see
system.mem_ctrls.wrQLenPdf::45                      0                       # What write queue length does an incoming req see
system.mem_ctrls.wrQLenPdf::46                      0                       # What write queue length does an incoming req see
system.mem_ctrls.wrQLenPdf::47                      0                       # What write queue length does an incoming req see
system.mem_ctrls.wrQLenPdf::48                      0                       # What write queue length does an incoming req see
system.mem_ctrls.wrQLenPdf::49                      0                       # What write queue length does an incoming req see
system.mem_ctrls.wrQLenPdf::50                      0                       # What write queue length does an incoming req see
system.mem_ctrls.wrQLenPdf::51                      0                       # What write queue length does an incoming req see
system.mem_ctrls.wrQLenPdf::52                      0                       # What write queue length does an incoming req see
system.mem_ctrls.wrQLenPdf::53                      0                       # What write queue length does an incoming req see
system.mem_ctrls.wrQLenPdf::54                      0                       # What write queue length does an incoming req see
system.mem_ctrls.wrQLenPdf::55                      0                       # What write queue length does an incoming req see
system.mem_ctrls.wrQLenPdf::56                      0                       # What write queue length does an incoming req see
system.mem_ctrls.wrQLenPdf::57                      0                       # What write queue length does an incoming req see
system.mem_ctrls.wrQLenPdf::58                      0                       # What write queue length does an incoming req see
system.mem_ctrls.wrQLenPdf::59                      0                       # What write queue length does an incoming req see
system.mem_ctrls.wrQLenPdf::60                      0                       # What write queue length does an incoming req see
system.mem_ctrls.wrQLenPdf::61                      0                       # What write queue length does an incoming req see
system.mem_ctrls.wrQLenPdf::62                      0                       # What write queue length does an incoming req see
system.mem_ctrls.wrQLenPdf::63                      0                       # What write queue length does an incoming req see
system.mem_ctrls.bytesPerActivate::samples        20137                       # Bytes accessed per row activation
system.mem_ctrls.bytesPerActivate::mean    598.536823                       # Bytes accessed per row activation
system.mem_ctrls.bytesPerActivate::gmean   488.702430                       # Bytes accessed per row activation
system.mem_ctrls.bytesPerActivate::stdev   308.496612                       # Bytes accessed per row activation
system.mem_ctrls.bytesPerActivate::0-127         1184      5.88%      5.88% # Bytes accessed per row activation
system.mem_ctrls.bytesPerActivate::128-255         1671      8.30%     14.18% # Bytes accessed per row activation
system.mem_ctrls.bytesPerActivate::256-383          861      4.28%     18.45% # Bytes accessed per row activation
system.mem_ctrls.bytesPerActivate::384-511          933      4.63%     23.09% # Bytes accessed per row activation
system.mem_ctrls.bytesPerActivate::512-639         8776     43.58%     66.67% # Bytes accessed per row activation
system.mem_ctrls.bytesPerActivate::640-767          351      1.74%     68.41% # Bytes accessed per row activation
system.mem_ctrls.bytesPerActivate::768-895          465      2.31%     70.72% # Bytes accessed per row activation
system.mem_ctrls.bytesPerActivate::896-1023          526      2.61%     73.33% # Bytes accessed per row activation
system.mem_ctrls.bytesPerActivate::1024-1151         5370     26.67%    100.00% # Bytes accessed per row activation
system.mem_ctrls.bytesPerActivate::total        20137                       # Bytes accessed per row activation
system.mem_ctrls.rdPerTurnAround::samples         4255                       # Reads before turning the bus around for writes
system.mem_ctrls.rdPerTurnAround::mean      28.202115                       # Reads before turning the bus around for writes
system.mem_ctrls.rdPerTurnAround::gmean     23.913096                       # Reads before turning the bus around for writes
system.mem_ctrls.rdPerTurnAround::stdev     32.119715                       # Reads before turning the bus around for writes
system.mem_ctrls.rdPerTurnAround::0-31           2404     56.50%     56.50% # Reads before turning the bus around for writes
system.mem_ctrls.rdPerTurnAround::32-63          1734     40.75%     97.25% # Reads before turning the bus around for writes
system.mem_ctrls.rdPerTurnAround::64-95            38      0.89%     98.14% # Reads before turning the bus around for writes
system.mem_ctrls.rdPerTurnAround::96-127           16      0.38%     98.52% # Reads before turning the bus around for writes
system.mem_ctrls.rdPerTurnAround::128-159           19      0.45%     98.97% # Reads before turning the bus around for writes
system.mem_ctrls.rdPerTurnAround::160-191           12      0.28%     99.25% # Reads before turning the bus around for writes
system.mem_ctrls.rdPerTurnAround::192-223            6      0.14%     99.39% # Reads before turning the bus around for writes
system.mem_ctrls.rdPerTurnAround::224-255            3      0.07%     99.46% # Reads before turning the bus around for writes
system.mem_ctrls.rdPerTurnAround::256-287           13      0.31%     99.76% # Reads before turning the bus around for writes
system.mem_ctrls.rdPerTurnAround::288-319            1      0.02%     99.79% # Reads before turning the bus around for writes
system.mem_ctrls.rdPerTurnAround::320-351            2      0.05%     99.84% # Reads before turning the bus around for writes
[...]
system.cpu.icache.ReadReq_avg_miss_latency::total 77162.288931                       # average ReadReq miss latency
system.cpu.icache.ReadReq_mshr_misses::.cpu.inst          533                       # number of ReadReq MSHR misses
system.cpu.icache.ReadReq_mshr_misses::total          533                       # number of ReadReq MSHR misses
system.cpu.icache.ReadReq_mshr_miss_latency::.cpu.inst     40594500                       # number of ReadReq MSHR miss cycles
system.cpu.icache.ReadReq_mshr_miss_latency::total     40594500                       # number of ReadReq MSHR miss cycles
system.cpu.icache.ReadReq_mshr_miss_rate::.cpu.inst     0.000458                       # mshr miss rate for ReadReq accesses
system.cpu.icache.ReadReq_mshr_miss_rate::total     0.000458                       # mshr miss rate for ReadReq accesses
system.cpu.icache.ReadReq_avg_mshr_miss_latency::.cpu.inst 76162.288931                       # average ReadReq mshr miss latency
system.cpu.icache.ReadReq_avg_mshr_miss_latency::total 76162.288931                       # average ReadReq mshr miss latency
system.cpu.icache.tags.pwrStateResidencyTicks::UNDEFINED  13594656000                       # Cumulative time (in ticks) in various power states
system.cpu.icache.tags.tagsinuse           474.054367                       # Cycle average of tags in use
system.cpu.icache.tags.total_refs             1162824                       # Total number of references to valid blocks.
system.cpu.icache.tags.sampled_refs               533                       # Sample count of references to valid blocks.
system.cpu.icache.tags.avg_refs           2181.658537                       # Average number of references to valid blocks.
system.cpu.icache.tags.warmup_cycle             87500                       # Cycle when the warmup percentage was hit.
system.cpu.icache.tags.occ_blocks::.cpu.inst   474.054367                       # Average occupied blocks per requestor
system.cpu.icache.tags.occ_percent::.cpu.inst     0.115736                       # Average percentage of cache occupancy
system.cpu.icache.tags.occ_percent::total     0.115736                       # Average percentage of cache occupancy
system.cpu.icache.tags.occ_task_id_blocks::1024          533                       # Occupied blocks per task id
system.cpu.icache.tags.age_task_id_blocks_1024::3          101                       # Occupied blocks per task id
system.cpu.icache.tags.age_task_id_blocks_1024::4          432                       # Occupied blocks per task id
system.cpu.icache.tags.occ_task_id_percent::1024     0.130127                       # Percentage of cache occupancy per task id
system.cpu.icache.tags.tag_accesses           2326181                       # Number of tag accesses
system.cpu.icache.tags.data_accesses          2326181                       # Number of data accesses
system.cpu.dtb.walker.pwrStateResidencyTicks::UNDEFINED  13594656000                       # Cumulative time (in ticks) in various power states
system.cpu.dtb.stage2_mmu.stage2_tlb.walker.pwrStateResidencyTicks::UNDEFINED  13594656000                       # Cumulative time (in ticks) in various power states
system.cpu.dcache.pwrStateResidencyTicks::UNDEFINED  13594656000                       # Cumulative time (in ticks) in various power states
system.cpu.dcache.demand_hits::.cpu.data      6986102                       # number of demand (read+write) hits
system.cpu.dcache.demand_hits::total          6986102                       # number of demand (read+write) hits
system.cpu.dcache.overall_hits::.cpu.data      6986209                       # number of overall hits
system.cpu.dcache.overall_hits::total         6986209                       # number of overall hits
system.cpu.dcache.demand_misses::.cpu.data       156203                       # number of demand (read+write) misses
system.cpu.dcache.demand_misses::total         156203                       # number of demand (read+write) misses
system.cpu.dcache.overall_misses::.cpu.data       157709                       # number of overall misses
system.cpu.dcache.overall_misses::total        157709                       # number of overall misses
system.cpu.dcache.demand_miss_latency::.cpu.data  10447517500                       # number of demand (read+write) miss cycles
system.cpu.dcache.demand_miss_latency::total  10447517500                       # number of demand (read+write) miss cycles
system.cpu.dcache.overall_miss_latency::.cpu.data  10447517500                       # number of overall miss cycles
system.cpu.dcache.overall_miss_latency::total  10447517500                       # number of overall miss cycles
system.cpu.dcache.demand_accesses::.cpu.data      7142305                       # number of demand (read+write) accesses
system.cpu.dcache.demand_accesses::total      7142305                       # number of demand (read+write) accesses
system.cpu.dcache.overall_accesses::.cpu.data      7143918                       # number of overall (read+write) accesses
system.cpu.dcache.overall_accesses::total      7143918                       # number of overall (read+write) accesses
system.cpu.dcache.demand_miss_rate::.cpu.data     0.021870                       # miss rate for demand accesses
system.cpu.dcache.demand_miss_rate::total     0.021870                       # miss rate for demand accesses
system.cpu.dcache.overall_miss_rate::.cpu.data     0.022076                       # miss rate for overall accesses
system.cpu.dcache.overall_miss_rate::total     0.022076                       # miss rate for overall accesses
system.cpu.dcache.demand_avg_miss_latency::.cpu.data 66884.230777                       # average overall miss latency
system.cpu.dcache.demand_avg_miss_latency::total 66884.230777                       # average overall miss latency
system.cpu.dcache.overall_avg_miss_latency::.cpu.data 66245.537667                       # average overall miss latency
system.cpu.dcache.overall_avg_miss_latency::total 66245.537667                       # average overall miss latency
system.cpu.dcache.blocked_cycles::no_mshrs        39118                       # number of cycles access was blocked
system.cpu.dcache.blocked_cycles::no_targets            0                       # number of cycles access was blocked
system.cpu.dcache.blocked::no_mshrs               576                       # number of cycles access was blocked
system.cpu.dcache.blocked::no_targets               0                       # number of cycles access was blocked
system.cpu.dcache.avg_blocked_cycles::no_mshrs    67.913194                       # average number of cycles each access was blocked
system.cpu.dcache.avg_blocked_cycles::no_targets          nan                       # average number of cycles each access was blocked
system.cpu.dcache.writebacks::.writebacks        68754                       # number of writebacks
system.cpu.dcache.writebacks::total             68754                       # number of writebacks
system.cpu.dcache.demand_mshr_hits::.cpu.data        37827                       # number of demand (read+write) MSHR hits
system.cpu.dcache.demand_mshr_hits::total        37827                       # number of demand (read+write) MSHR hits
system.cpu.dcache.overall_mshr_hits::.cpu.data        37827                       # number of overall MSHR hits
system.cpu.dcache.overall_mshr_hits::total        37827                       # number of overall MSHR hits
system.cpu.dcache.demand_mshr_misses::.cpu.data       118376                       # number of demand (read+write) MSHR misses
system.cpu.dcache.demand_mshr_misses::total       118376                       # number of demand (read+write) MSHR misses
system.cpu.dcache.overall_mshr_misses::.cpu.data       119876                       # number of overall MSHR misses
system.cpu.dcache.overall_mshr_misses::total       119876                       # number of overall MSHR misses
system.cpu.dcache.demand_mshr_miss_latency::.cpu.data  10024104000                       # number of demand (read+write) MSHR miss cycles
system.cpu.dcache.demand_mshr_miss_latency::total  10024104000                       # number of demand (read+write) MSHR miss cycles
system.cpu.dcache.overall_mshr_miss_latency::.cpu.data  10145428499                       # number of overall MSHR miss cycles
system.cpu.dcache.overall_mshr_miss_latency::total  10145428499                       # number of overall MSHR miss cycles
system.cpu.dcache.demand_mshr_miss_rate::.cpu.data     0.016574                       # mshr miss rate for demand accesses
system.cpu.dcache.demand_mshr_miss_rate::total     0.016574                       # mshr miss rate for demand accesses
system.cpu.dcache.overall_mshr_miss_rate::.cpu.data     0.016780                       # mshr miss rate for overall accesses
system.cpu.dcache.overall_mshr_miss_rate::total     0.016780                       # mshr miss rate for overall accesses
system.cpu.dcache.demand_avg_mshr_miss_latency::.cpu.data 84680.205447                       # average overall mshr miss latency
system.cpu.dcache.demand_avg_mshr_miss_latency::total 84680.205447                       # average overall mshr miss latency
system.cpu.dcache.overall_avg_mshr_miss_latency::.cpu.data 84632.691273                       # average overall mshr miss latency
system.cpu.dcache.overall_avg_mshr_miss_latency::total 84632.691273                       # average overall mshr miss latency
system.cpu.dcache.replacements                 115780                       # number of replacements
system.cpu.dcache.ReadReq_hits::.cpu.data      5638658                       # number of ReadReq hits
system.cpu.dcache.ReadReq_hits::total         5638658                       # number of ReadReq hits
system.cpu.dcache.ReadReq_misses::.cpu.data        48140                       # number of ReadReq misses
system.cpu.dcache.ReadReq_misses::total         48140                       # number of ReadReq misses
system.cpu.dcache.ReadReq_miss_latency::.cpu.data   3855645000                       # number of ReadReq miss cycles
system.cpu.dcache.ReadReq_miss_latency::total   3855645000                       # number of ReadReq miss cycles
system.cpu.dcache.ReadReq_accesses::.cpu.data      5686798                       # number of ReadReq accesses(hits+misses)
system.cpu.dcache.ReadReq_accesses::total      5686798                       # number of ReadReq accesses(hits+misses)
system.cpu.dcache.ReadReq_miss_rate::.cpu.data     0.008465                       # miss rate for ReadReq accesses
system.cpu.dcache.ReadReq_miss_rate::total     0.008465                       # miss rate for ReadReq accesses
system.cpu.dcache.ReadReq_avg_miss_latency::.cpu.data 80092.334857                       # average ReadReq miss latency
system.cpu.dcache.ReadReq_avg_miss_latency::total 80092.334857                       # average ReadReq miss latency
system.cpu.dcache.ReadReq_mshr_hits::.cpu.data           10                       # number of ReadReq MSHR hits
system.cpu.dcache.ReadReq_mshr_hits::total           10                       # number of ReadReq MSHR hits
system.cpu.dcache.ReadReq_mshr_misses::.cpu.data        48130                       # number of ReadReq MSHR misses
system.cpu.dcache.ReadReq_mshr_misses::total        48130                       # number of ReadReq MSHR misses
system.cpu.dcache.ReadReq_mshr_miss_latency::.cpu.data   3806768000                       # number of ReadReq MSHR miss cycles
system.cpu.dcache.ReadReq_mshr_miss_latency::total   3806768000                       # number of ReadReq MSHR miss cycles
system.cpu.dcache.ReadReq_mshr_miss_rate::.cpu.data     0.008463                       # mshr miss rate for ReadReq accesses
system.cpu.dcache.ReadReq_mshr_miss_rate::total     0.008463                       # mshr miss rate for ReadReq accesses
system.cpu.dcache.ReadReq_avg_mshr_miss_latency::.cpu.data 79093.455225                       # average ReadReq mshr miss latency
system.cpu.dcache.ReadReq_avg_mshr_miss_latency::total 79093.455225                       # average ReadReq mshr miss latency
system.cpu.dcache.WriteReq_hits::.cpu.data      1347444                       # number of WriteReq hits
system.cpu.dcache.WriteReq_hits::total        1347444                       # number of WriteReq hits
system.cpu.dcache.WriteReq_misses::.cpu.data       108063                       # number of WriteReq misses
system.cpu.dcache.WriteReq_misses::total       108063                       # number of WriteReq misses
system.cpu.dcache.WriteReq_miss_latency::.cpu.data   6591872500                       # number of WriteReq miss cycles
system.cpu.dcache.WriteReq_miss_latency::total   6591872500                       # number of WriteReq miss cycles
system.cpu.dcache.WriteReq_accesses::.cpu.data      1455507                       # number of WriteReq accesses(hits+misses)
system.cpu.dcache.WriteReq_accesses::total      1455507                       # number of WriteReq accesses(hits+misses)
system.cpu.dcache.WriteReq_miss_rate::.cpu.data     0.074244                       # miss rate for WriteReq accesses
system.cpu.dcache.WriteReq_miss_rate::total     0.074244                       # miss rate for WriteReq accesses
system.cpu.dcache.WriteReq_avg_miss_latency::.cpu.data 61000.272989                       # average WriteReq miss latency
system.cpu.dcache.WriteReq_avg_miss_latency::total 61000.272989                       # average WriteReq miss latency
system.cpu.dcache.WriteReq_mshr_hits::.cpu.data        37817                       # number of WriteReq MSHR hits
system.cpu.dcache.WriteReq_mshr_hits::total        37817                       # number of WriteReq MSHR hits
system.cpu.dcache.WriteReq_mshr_misses::.cpu.data        70246                       # number of WriteReq MSHR misses
system.cpu.dcache.WriteReq_mshr_misses::total        70246                       # number of WriteReq MSHR misses
system.cpu.dcache.WriteReq_mshr_miss_latency::.cpu.data   6217336000                       # number of WriteReq MSHR miss cycles
system.cpu.dcache.WriteReq_mshr_miss_latency::total   6217336000                       # number of WriteReq MSHR miss cycles
system.cpu.dcache.WriteReq_mshr_miss_rate::.cpu.data     0.048262                       # mshr miss rate for WriteReq accesses
system.cpu.dcache.WriteReq_mshr_miss_rate::total     0.048262                       # mshr miss rate for WriteReq accesses
system.cpu.dcache.WriteReq_avg_mshr_miss_latency::.cpu.data 88508.043163                       # average WriteReq mshr miss latency
system.cpu.dcache.WriteReq_avg_mshr_miss_latency::total 88508.043163                       # average WriteReq mshr miss latency
system.cpu.dcache.SoftPFReq_hits::.cpu.data          107                       # number of SoftPFReq hits
system.cpu.dcache.SoftPFReq_hits::total           107                       # number of SoftPFReq hits
system.cpu.dcache.SoftPFReq_misses::.cpu.data         1506                       # number of SoftPFReq misses
system.cpu.dcache.SoftPFReq_misses::total         1506                       # number of SoftPFReq misses
system.cpu.dcache.SoftPFReq_accesses::.cpu.data         1613                       # number of SoftPFReq accesses(hits+misses)
system.cpu.dcache.SoftPFReq_accesses::total         1613                       # number of SoftPFReq accesses(hits+misses)
system.cpu.dcache.SoftPFReq_miss_rate::.cpu.data     0.933664                       # miss rate for SoftPFReq accesses
system.cpu.dcache.SoftPFReq_miss_rate::total     0.933664                       # miss rate for SoftPFReq accesses
system.cpu.dcache.SoftPFReq_mshr_misses::.cpu.data         1500                       # number of SoftPFReq MSHR misses
system.cpu.dcache.SoftPFReq_mshr_misses::total         1500                       # number of SoftPFReq MSHR misses
system.cpu.dcache.SoftPFReq_mshr_miss_latency::.cpu.data    121324499                       # number of SoftPFReq MSHR miss cycles
system.cpu.dcache.SoftPFReq_mshr_miss_latency::total    121324499                       # number of SoftPFReq MSHR miss cycles
system.cpu.dcache.SoftPFReq_mshr_miss_rate::.cpu.data     0.929944                       # mshr miss rate for SoftPFReq accesses
system.cpu.dcache.SoftPFReq_mshr_miss_rate::total     0.929944                       # mshr miss rate for SoftPFReq accesses
system.cpu.dcache.SoftPFReq_avg_mshr_miss_latency::.cpu.data 80882.999333                       # average SoftPFReq mshr miss latency
system.cpu.dcache.SoftPFReq_avg_mshr_miss_latency::total 80882.999333                       # average SoftPFReq mshr miss latency
system.cpu.dcache.LoadLockedReq_hits::.cpu.data           38                       # number of LoadLockedReq hits
system.cpu.dcache.LoadLockedReq_hits::total           38                       # number of LoadLockedReq hits
system.cpu.dcache.LoadLockedReq_accesses::.cpu.data           38                       # number of LoadLockedReq accesses(hits+misses)
system.cpu.dcache.LoadLockedReq_accesses::total           38                       # number of LoadLockedReq accesses(hits+misses)
system.cpu.dcache.StoreCondReq_hits::.cpu.data           38                       # number of StoreCondReq hits
system.cpu.dcache.StoreCondReq_hits::total           38                       # number of StoreCondReq hits
system.cpu.dcache.StoreCondReq_accesses::.cpu.data           38                       # number of StoreCondReq accesses(hits+misses)
system.cpu.dcache.StoreCondReq_accesses::total           38                       # number of StoreCondReq accesses(hits+misses)
system.cpu.dcache.tags.pwrStateResidencyTicks::UNDEFINED  13594656000                       # Cumulative time (in ticks) in various power states
system.cpu.dcache.tags.tagsinuse          3620.180007                       # Cycle average of tags in use
system.cpu.dcache.tags.total_refs             7106161                       # Total number of references to valid blocks.
system.cpu.dcache.tags.sampled_refs            119876                       # Sample count of references to valid blocks.
system.cpu.dcache.tags.avg_refs             59.279264                       # Average number of references to valid blocks.
system.cpu.dcache.tags.warmup_cycle            176500                       # Cycle when the warmup percentage was hit.
system.cpu.dcache.tags.occ_blocks::.cpu.data  3620.180007                       # Average occupied blocks per requestor
system.cpu.dcache.tags.occ_percent::.cpu.data     0.883833                       # Average percentage of cache occupancy
system.cpu.dcache.tags.occ_percent::total     0.883833                       # Average percentage of cache occupancy
system.cpu.dcache.tags.occ_task_id_blocks::1024         4096                       # Occupied blocks per task id
system.cpu.dcache.tags.age_task_id_blocks_1024::0            2                       # Occupied blocks per task id
system.cpu.dcache.tags.age_task_id_blocks_1024::1           19                       # Occupied blocks per task id
system.cpu.dcache.tags.age_task_id_blocks_1024::2          341                       # Occupied blocks per task id
system.cpu.dcache.tags.age_task_id_blocks_1024::3         3734                       # Occupied blocks per task id
system.cpu.dcache.tags.occ_task_id_percent::1024            1                       # Percentage of cache occupancy per task id
system.cpu.dcache.tags.tag_accesses          14407864                       # Number of tag accesses
system.cpu.dcache.tags.data_accesses         14407864                       # Number of data accesses
system.cpu.itb.walker.pwrStateResidencyTicks::UNDEFINED  13594656000                       # Cumulative time (in ticks) in various power states
system.cpu.itb.stage2_mmu.stage2_tlb.walker.pwrStateResidencyTicks::UNDEFINED  13594656000                       # Cumulative time (in ticks) in various power states

---------- End Simulation Statistics   ----------
