
---------- Begin Simulation Statistics ----------
final_tick                                  289475000                       # Number of ticks from beginning of simulation (restored from checkpoints and never reset)
host_inst_rate                                 209372                       # Simulator instruction rate (inst/s)
host_mem_usage                                 705504                       # Number of bytes of host memory used
host_op_rate                                   211886                       # Simulator op (including micro ops) rate (op/s)
host_seconds                                     0.48                       # Real time elapsed on the host
host_tick_rate                              605936388                       # Simulator tick rate (ticks/s)
sim_freq                                 1000000000000                       # Frequency of simulated ticks
sim_insts                                      100001                       # Number of instructions simulated
sim_ops                                        101221                       # Number of ops (including micro ops) simulated
sim_seconds                                  0.000289                       # Number of seconds simulated
sim_ticks                                   289475000                       # Number of ticks simulated
system.cpu.branchPred.BTBCorrect                    0                       # Number of correct BTB predictions (this stat may not work properly.
system.cpu.branchPred.BTBHitPct             78.727432                       # BTB Hit Percentage
system.cpu.branchPred.BTBHits                    5407                       # Number of BTB hits
system.cpu.branchPred.BTBLookups                 6868                       # Number of BTB lookups
system.cpu.branchPred.RASInCorrect                  4                       # Number of incorrect RAS predictions.
system.cpu.branchPred.condIncorrect               495                       # Number of conditional branches incorrect
system.cpu.branchPred.condPredicted              6526                       # Number of conditional branches predicted
system.cpu.branchPred.indirectHits                 19                       # Number of indirect target hits.
system.cpu.branchPred.indirectLookups             118                       # Number of indirect predictor lookups.
system.cpu.branchPred.indirectMisses               99                       # Number of indirect misses.
system.cpu.branchPred.lookups                    7411                       # Number of BP lookups
system.cpu.branchPred.usedRAS                     232                       # Number of times the RAS was used to get a target.
system.cpu.branchPredindirectMispredicted           56                       # Number of mispredicted indirect branches.
system.cpu.committedInsts                      100001                       # Number of instructions committed
system.cpu.committedOps                        101221                       # Number of ops (including micro ops) committed
system.cpu.cpi                               5.789442                       # CPI: cycles per instruction
system.cpu.discardedOps                          1590                       # Number of ops (including micro ops) which were discarded before commit
system.cpu.dtb.accesses                             0                       # DTB accesses
system.cpu.dtb.align_faults                         0                       # Number of TLB faults due to alignment restrictions
system.cpu.dtb.domain_faults                        0                       # Number of TLB faults due to domain restrictions
system.cpu.dtb.flush_entries                        0                       # Number of entries that have been flushed from TLB
system.cpu.dtb.flush_tlb                            0                       # Number of times complete TLB was flushed
system.cpu.dtb.flush_tlb_asid                       0                       # Number of times TLB was flushed by ASID
system.cpu.dtb.flush_tlb_mva                        0                       # Number of times TLB was flushed by MVA
system.cpu.dtb.flush_tlb_mva_asid                   0                       # Number of times TLB was flushed by MVA & ASID
system.cpu.dtb.hits                                 0                       # DTB hits
system.cpu.dtb.inst_accesses                        0                       # ITB inst accesses
system.cpu.dtb.inst_hits                            0                       # ITB inst hits
system.cpu.dtb.inst_misses                          0                       # ITB inst misses
system.cpu.dtb.misses                               0                       # DTB misses
system.cpu.dtb.perms_faults                         0                       # Number of TLB faults due to permissions restrictions
system.cpu.dtb.prefetch_faults                      0                       # Number of TLB faults due to prefetch
system.cpu.dtb.read_accesses                        0                       # DTB read accesses
system.cpu.dtb.read_hits                            0                       # DTB read hits
system.cpu.dtb.read_misses                          0                       # DTB read misses
system.cpu.dtb.stage2_mmu.stage2_tlb.accesses            0                       # DTB accesses
system.cpu.dtb.stage2_mmu.stage2_tlb.align_faults            0                       # Number of TLB faults due to alignment restrictions
system.cpu.dtb.stage2_mmu.stage2_tlb.domain_faults            0                       # Number of TLB faults due to domain restrictions
system.cpu.dtb.stage2_mmu.stage2_tlb.flush_entries            0                       # Number of entries that have been flushed from TLB
system.cpu.dtb.stage2_mmu.stage2_tlb.flush_tlb            0                       # Number of times complete TLB was flushed
system.cpu.dtb.stage2_mmu.stage2_tlb.flush_tlb_asid            0                       # Number of times TLB was flushed by ASID
system.cpu.dtb.stage2_mmu.stage2_tlb.flush_tlb_mva            0                       # Number of times TLB was flushed by MVA
system.cpu.dtb.stage2_mmu.stage2_tlb.flush_tlb_mva_asid            0                       # Number of times TLB was flushed by MVA & ASID
system.cpu.dtb.stage2_mmu.stage2_tlb.hits            0                       # DTB hits
system.cpu.dtb.stage2_mmu.stage2_tlb.inst_accesses            0                       # ITB inst accesses
system.cpu.dtb.stage2_mmu.stage2_tlb.inst_hits            0                       # ITB inst hits
system.cpu.dtb.stage2_mmu.stage2_tlb.inst_misses            0                       # ITB inst misses
system.cpu.dtb.stage2_mmu.stage2_tlb.misses            0                       # DTB misses
system.cpu.dtb.stage2_mmu.stage2_tlb.perms_faults            0                       # Number of TLB faults due to permissions restrictions
system.cpu.dtb.stage2_mmu.stage2_tlb.prefetch_faults            0                       # Number of TLB faults due to prefetch
system.cpu.dtb.stage2_mmu.stage2_tlb.read_accesses            0                       # DTB read accesses
system.cpu.dtb.stage2_mmu.stage2_tlb.read_hits            0                       # DTB read hits
system.cpu.dtb.stage2_mmu.stage2_tlb.read_misses            0                       # DTB read misses
system.cpu.dtb.stage2_mmu.stage2_tlb.walker.walkRequestOrigin_Requested::Data            0                       # Table walker requests started/completed, data/inst
system.cpu.dtb.stage2_mmu.stage2_tlb.walker.walkRequestOrigin_Requested::Inst            0                       # Table walker requests started/completed, data/inst
system.cpu.dtb.stage2_mmu.stage2_tlb.walker.walkRequestOrigin_Requested::total            0                       # Table walker requests started/completed, data/inst
system.cpu.dtb.stage2_mmu.stage2_tlb.walker.walkRequestOrigin_Completed::Data            0                       # Table walker requests started/completed, data/inst
system.cpu.dtb.stage2_mmu.stage2_tlb.walker.walkRequestOrigin_Completed::Inst            0                       # Table walker requests started/completed, data/inst
system.cpu.dtb.stage2_mmu.stage2_tlb.walker.walkRequestOrigin_Completed::total            0                       # Table walker requests started/completed, data/inst
system.cpu.dtb.stage2_mmu.stage2_tlb.walker.walkRequestOrigin::total            0                       # Table walker requests started/completed, data/inst
system.cpu.dtb.stage2_mmu.stage2_tlb.walker.walks            0                       # Table walker walks requested
system.cpu.dtb.stage2_mmu.stage2_tlb.write_accesses            0                       # DTB write accesses
system.cpu.dtb.stage2_mmu.stage2_tlb.write_hits            0                       # DTB write hits
system.cpu.dtb.stage2_mmu.stage2_tlb.write_misses            0                       # DTB write misses
system.cpu.dtb.walker.walkRequestOrigin_Requested::Data            0                       # Table walker requests started/completed, data/inst
system.cpu.dtb.walker.walkRequestOrigin_Requested::Inst            0                       # Table walker requests started/completed, data/inst
system.cpu.dtb.walker.walkRequestOrigin_Requested::total            0                       # Table walker requests started/completed, data/inst
system.cpu.dtb.walker.walkRequestOrigin_Completed::Data            0                       # Table walker requests started/completed, data/inst
system.cpu.dtb.walker.walkRequestOrigin_Completed::Inst            0                       # Table walker requests started/completed, data/inst
system.cpu.dtb.walker.walkRequestOrigin_Completed::total            0                       # Table walker requests started/completed, data/inst
system.cpu.dtb.walker.walkRequestOrigin::total            0                       # Table walker requests started/completed, data/inst
system.cpu.dtb.walker.walks                         0                       # Table walker walks requested
system.cpu.dtb.write_accesses                       0                       # DTB write accesses
system.cpu.dtb.write_hits                           0                       # DTB write hits
system.cpu.dtb.write_misses                         0                       # DTB write misses
system.cpu.fetch2.amo_instructions                  0                       # Number of memory atomic instructions successfully decoded
system.cpu.fetch2.fp_instructions                   0                       # Number of floating point instructions successfully decoded
system.cpu.fetch2.int_instructions              46809                       # Number of integer instructions successfully decoded
system.cpu.fetch2.load_instructions             40505                       # Number of memory load instructions successfully decoded
system.cpu.fetch2.store_instructions            10770                       # Number of memory store instructions successfully decoded
system.cpu.fetch2.vec_instructions                  0                       # Number of SIMD instructions successfully decoded
system.cpu.idleCycles                          444948                       # Total number of cycles that the object has spent stopped
system.cpu.ipc                               0.172728                       # IPC: instructions per cycle
system.cpu.itb.accesses                             0                       # DTB accesses
system.cpu.itb.align_faults                         0                       # Number of TLB faults due to alignment restrictions
system.cpu.itb.domain_faults                        0                       # Number of TLB faults due to domain restrictions
system.cpu.itb.flush_entries                        0                       # Number of entries that have been flushed from TLB
system.cpu.itb.flush_tlb                            0                       # Number of times complete TLB was flushed
system.cpu.itb.flush_tlb_asid                       0                       # Number of times TLB was flushed by ASID
system.cpu.itb.flush_tlb_mva                        0                       # Number of times TLB was flushed by MVA
system.cpu.itb.flush_tlb_mva_asid                   0                       # Number of times TLB was flushed by MVA & ASID
system.cpu.itb.hits                                 0                       # DTB hits
system.cpu.itb.inst_accesses                        0                       # ITB inst accesses
system.cpu.itb.inst_hits                            0                       # ITB inst hits
system.cpu.itb.inst_misses                          0                       # ITB inst misses
system.cpu.itb.misses                               0                       # DTB misses
system.cpu.itb.perms_faults                         0                       # Number of TLB faults due to permissions restrictions
system.cpu.itb.prefetch_faults                      0                       # Number of TLB faults due to prefetch
system.cpu.itb.read_accesses                        0                       # DTB read accesses
system.cpu.itb.read_hits                            0                       # DTB read hits
system.cpu.itb.read_misses                          0                       # DTB read misses
system.cpu.itb.stage2_mmu.stage2_tlb.accesses            0                       # DTB accesses
system.cpu.itb.stage2_mmu.stage2_tlb.align_faults            0                       # Number of TLB faults due to alignment restrictions
system.cpu.itb.stage2_mmu.stage2_tlb.domain_faults            0                       # Number of TLB faults due to domain restrictions
system.cpu.itb.stage2_mmu.stage2_tlb.flush_entries            0                       # Number of entries that have been flushed from TLB
system.cpu.itb.stage2_mmu.stage2_tlb.flush_tlb            0                       # Number of times complete TLB was flushed
system.cpu.itb.stage2_mmu.stage2_tlb.flush_tlb_asid            0                       # Number of times TLB was flushed by ASID
system.cpu.itb.stage2_mmu.stage2_tlb.flush_tlb_mva            0                       # Number of times TLB was flushed by MVA
system.cpu.itb.stage2_mmu.stage2_tlb.flush_tlb_mva_asid            0                       # Number of times TLB was flushed by MVA & ASID
system.cpu.itb.stage2_mmu.stage2_tlb.hits            0                       # DTB hits
system.cpu.itb.stage2_mmu.stage2_tlb.inst_accesses            0                       # ITB inst accesses
system.cpu.itb.stage2_mmu.stage2_tlb.inst_hits            0                       # ITB inst hits
system.cpu.itb.stage2_mmu.stage2_tlb.inst_misses            0                       # ITB inst misses
system.cpu.itb.stage2_mmu.stage2_tlb.misses            0                       # DTB misses
system.cpu.itb.stage2_mmu.stage2_tlb.perms_faults            0                       # Number of TLB faults due to permissions restrictions
system.cpu.itb.stage2_mmu.stage2_tlb.prefetch_faults            0                       # Number of TLB faults due to prefetch
system.cpu.itb.stage2_mmu.stage2_tlb.read_accesses            0                       # DTB read accesses
system.cpu.itb.stage2_mmu.stage2_tlb.read_hits            0                       # DTB read hits
system.cpu.itb.stage2_mmu.stage2_tlb.read_misses            0                       # DTB read misses
system.cpu.itb.stage2_mmu.stage2_tlb.walker.walkRequestOrigin_Requested::Data            0                       # Table walker requests started/completed, data/inst
system.cpu.itb.stage2_mmu.stage2_tlb.walker.walkRequestOrigin_Requested::Inst            0                       # Table walker requests started/completed, data/inst
system.cpu.itb.stage2_mmu.stage2_tlb.walker.walkRequestOrigin_Requested::total            0                       # Table walker requests started/completed, data/inst
system.cpu.itb.stage2_mmu.stage2_tlb.walker.walkRequestOrigin_Completed::Data            0                       # Table walker requests started/completed, data/inst
system.cpu.itb.stage2_mmu.stage2_tlb.walker.walkRequestOrigin_Completed::Inst            0                       # Table walker requests started/completed, data/inst
system.cpu.itb.stage2_mmu.stage2_tlb.walker.walkRequestOrigin_Completed::total            0                       # Table walker requests started/completed, data/inst
system.cpu.itb.stage2_mmu.stage2_tlb.walker.walkRequestOrigin::total            0                       # Table walker requests started/completed, data/inst
system.cpu.itb.stage2_mmu.stage2_tlb.walker.walks            0                       # Table walker walks requested
system.cpu.itb.stage2_mmu.stage2_tlb.write_accesses            0                       # DTB write accesses
system.cpu.itb.stage2_mmu.stage2_tlb.write_hits            0                       # DTB write hits
system.cpu.itb.stage2_mmu.stage2_tlb.write_misses            0                       # DTB write misses
system.cpu.itb.walker.walkRequestOrigin_Requested::Data            0                       # Table walker requests started/completed, data/inst
system.cpu.itb.walker.walkRequestOrigin_Requested::Inst            0                       # Table walker requests started/completed, data/inst
system.cpu.itb.walker.walkRequestOrigin_Requested::total            0                       # Table walker requests started/completed, data/inst
system.cpu.itb.walker.walkRequestOrigin_Completed::Data            0                       # Table walker requests started/completed, data/inst
system.cpu.itb.walker.walkRequestOrigin_Completed::Inst            0                       # Table walker requests started/completed, data/inst
system.cpu.itb.walker.walkRequestOrigin_Completed::total            0                       # Table walker requests started/completed, data/inst
system.cpu.itb.walker.walkRequestOrigin::total            0                       # Table walker requests started/completed, data/inst
system.cpu.itb.walker.walks                         0                       # Table walker walks requested
system.cpu.itb.write_accesses                       0                       # DTB write accesses
system.cpu.itb.write_hits                           0                       # DTB write hits
system.cpu.itb.write_misses                         0                       # DTB write misses
system.cpu.numCycles                           578950                       # number of cpu cycles simulated
system.cpu.numFetchSuspends                         0                       # Number of times Execute suspended instruction fetching
system.cpu.numWorkItemsCompleted                    0                       # number of work items this cpu completed
system.cpu.numWorkItemsStarted                      0                       # number of work items this cpu started
system.cpu.op_class_0::No_OpClass                   0      0.00%      0.00% # Class of committed instruction
system.cpu.op_class_0::IntAlu                   50032     49.43%     49.43% # Class of committed instruction
system.cpu.op_class_0::IntMult                     47      0.05%     49.47% # Class of committed instruction
system.cpu.op_class_0::IntDiv                       0      0.00%     49.47% # Class of committed instruction
system.cpu.op_class_0::FloatAdd                     0      0.00%     49.47% # Class of committed instruction
system.cpu.op_class_0::FloatCmp                     0      0.00%     49.47% # Class of committed instruction
system.cpu.op_class_0::FloatCvt                     0      0.00%     49.47% # Class of committed instruction
system.cpu.op_class_0::FloatMult                    0      0.00%     49.47% # Class of committed instruction
system.cpu.op_class_0::FloatMultAcc                 0      0.00%     49.47% # Class of committed instruction
system.cpu.op_class_0::FloatDiv                     0      0.00%     49.47% # Class of committed instruction
system.cpu.op_class_0::FloatMisc                    0      0.00%     49.47% # Class of committed instruction
system.cpu.op_class_0::FloatSqrt                    0      0.00%     49.47% # Class of committed instruction
system.cpu.op_class_0::SimdAdd                      0      0.00%     49.47% # Class of committed instruction
system.cpu.op_class_0::SimdAddAcc                   0      0.00%     49.47% # Class of committed instruction
system.cpu.op_class_0::SimdAlu                      0      0.00%     49.47% # Class of committed instruction
system.cpu.op_class_0::SimdCmp                      0      0.00%     49.47% # Class of committed instruction
system.cpu.op_class_0::SimdCvt                      0      0.00%     49.47% # Class of committed instruction
system.cpu.op_class_0::SimdMisc                     0      0.00%     49.47% # Class of committed instruction
system.cpu.op_class_0::SimdMult                     0      0.00%     49.47% # Class of committed instruction
system.cpu.op_class_0::SimdMultAcc                  0      0.00%     49.47% # Class of committed instruction
system.cpu.op_class_0::SimdShift                    0      0.00%     49.47% # Class of committed instruction
system.cpu.op_class_0::SimdShiftAcc                 0      0.00%     49.47% # Class of committed instruction
system.cpu.op_class_0::SimdDiv                      0      0.00%     49.47% # Class of committed instruction
system.cpu.op_class_0::SimdSqrt                     0      0.00%     49.47% # Class of committed instruction
system.cpu.op_class_0::SimdFloatAdd                 0      0.00%     49.47% # Class of committed instruction
system.cpu.op_class_0::SimdFloatAlu                 0      0.00%     49.47% # Class of committed instruction
system.cpu.op_class_0::SimdFloatCmp                 0      0.00%     49.47% # Class of committed instruction
system.cpu.op_class_0::SimdFloatCvt                 0      0.00%     49.47% # Class of committed instruction
system.cpu.op_class_0::SimdFloatDiv                 0      0.00%     49.47% # Class of committed instruction
system.cpu.op_class_0::SimdFloatMisc               17      0.02%     49.49% # Class of committed instruction
system.cpu.op_class_0::SimdFloatMult                0      0.00%     49.49% # Class of committed instruction
system.cpu.op_class_0::SimdFloatMultAcc             0      0.00%     49.49% # Class of committed instruction
system.cpu.op_class_0::SimdFloatSqrt                0      0.00%     49.49% # Class of committed instruction
system.cpu.op_class_0::SimdReduceAdd                0      0.00%     49.49% # Class of committed instruction
system.cpu.op_class_0::SimdReduceAlu                0      0.00%     49.49% # Class of committed instruction
system.cpu.op_class_0::SimdReduceCmp                0      0.00%     49.49% # Class of committed instruction
system.cpu.op_class_0::SimdFloatReduceAdd            0      0.00%     49.49% # Class of committed instruction
system.cpu.op_class_0::SimdFloatReduceCmp            0      0.00%     49.49% # Class of committed instruction
system.cpu.op_class_0::SimdAes                      0      0.00%     49.49% # Class of committed instruction
system.cpu.op_class_0::SimdAesMix                   0      0.00%     49.49% # Class of committed instruction
system.cpu.op_class_0::SimdSha1Hash                 0      0.00%     49.49% # Class of committed instruction
system.cpu.op_class_0::SimdSha1Hash2                0      0.00%     49.49% # Class of committed instruction
system.cpu.op_class_0::SimdSha256Hash               0      0.00%     49.49% # Class of committed instruction
system.cpu.op_class_0::SimdSha256Hash2              0      0.00%     49.49% # Class of committed instruction
system.cpu.op_class_0::SimdShaSigma2                0      0.00%     49.49% # Class of committed instruction
system.cpu.op_class_0::SimdShaSigma3                0      0.00%     49.49% # Class of committed instruction
system.cpu.op_class_0::SimdPredAlu                  0      0.00%     49.49% # Class of committed instruction
system.cpu.op_class_0::MemRead                  39972     39.49%     88.98% # Class of committed instruction
system.cpu.op_class_0::MemWrite                 11153     11.02%    100.00% # Class of committed instruction
system.cpu.op_class_0::FloatMemRead                 0      0.00%    100.00% # Class of committed instruction
system.cpu.op_class_0::FloatMemWrite                0      0.00%    100.00% # Class of committed instruction
system.cpu.op_class_0::IprAccess                    0      0.00%    100.00% # Class of committed instruction
system.cpu.op_class_0::InstPrefetch                 0      0.00%    100.00% # Class of committed instruction
system.cpu.op_class_0::total                   101221                       # Class of committed instruction
system.cpu.tickCycles                          134002                       # Number of cycles that the object actually ticked
system.cpu.workload.numSyscalls                    10                       # Number of system calls
system.membus.snoop_filter.hit_multi_requests            0                       # Number of requests hitting in the snoop filter with multiple (>1) holders of the requested data.
system.membus.snoop_filter.hit_multi_snoops            0                       # Number of snoops hitting in the snoop filter with multiple (>1) holders of the requested data.
system.membus.snoop_filter.hit_single_requests         2792                       # Number of requests hitting in the snoop filter with a single holder of the requested data.
system.membus.snoop_filter.hit_single_snoops            0                       # Number of snoops hitting in the snoop filter with a single holder of the requested data.
system.membus.snoop_filter.tot_requests          8361                       # Total number of requests made to the snoop filter.
system.membus.snoop_filter.tot_snoops               0                       # Total number of snoops made to the snoop filter.
system.tol2bus.snoop_filter.hit_multi_requests            3                       # Number of requests hitting in the snoop filter with multiple (>1) holders of the requested data.
system.tol2bus.snoop_filter.hit_multi_snoops            0                       # Number of snoops hitting in the snoop filter with multiple (>1) holders of the requested data.
system.tol2bus.snoop_filter.hit_single_requests         4827                       # Number of requests hitting in the snoop filter with a single holder of the requested data.
system.tol2bus.snoop_filter.hit_single_snoops           16                       # Number of snoops hitting in the snoop filter with a single holder of the requested data.
system.tol2bus.snoop_filter.tot_requests        10436                       # Total number of requests made to the snoop filter.
system.tol2bus.snoop_filter.tot_snoops             16                       # Total number of snoops made to the snoop filter.
system.membus.pwrStateResidencyTicks::UNDEFINED    289475000                       # Cumulative time (in ticks) in various power states
system.membus.trans_dist::ReadResp                623                       # Transaction distribution
system.membus.trans_dist::WritebackDirty         2787                       # Transaction distribution
system.membus.trans_dist::CleanEvict                5                       # Transaction distribution
system.membus.trans_dist::ReadExReq              4946                       # Transaction distribution
system.membus.trans_dist::ReadExResp             4946                       # Transaction distribution
system.membus.trans_dist::ReadSharedReq           623                       # Transaction distribution
system.membus.pkt_count_system.l2.mem_side::system.mem_ctrls.port        13930                       # Packet count per connected master and slave (bytes)
system.membus.pkt_count::total                  13930                       # Packet count per connected master and slave (bytes)
system.membus.pkt_size_system.l2.mem_side::system.mem_ctrls.port       267392                       # Cumulative packet size per connected master and slave (bytes)
system.membus.pkt_size::total                  267392                       # Cumulative packet size per connected master and slave (bytes)
system.membus.snoops                                0                       # Total snoops (count)
system.membus.snoopTraffic                          0                       # Total snoop traffic (bytes)
system.membus.snoop_fanout::samples              5569                       # Request fanout histogram
system.membus.snoop_fanout::mean                    0                       # Request fanout histogram
system.membus.snoop_fanout::stdev                   0                       # Request fanout histogram
system.membus.snoop_fanout::underflows              0      0.00%      0.00% # Request fanout histogram
system.membus.snoop_fanout::0                    5569    100.00%    100.00% # Request fanout histogram
system.membus.snoop_fanout::1                       0      0.00%    100.00% # Request fanout histogram
system.membus.snoop_fanout::overflows               0      0.00%    100.00% # Request fanout histogram
system.membus.snoop_fanout::min_value               0                       # Request fanout histogram
system.membus.snoop_fanout::max_value               0                       # Request fanout histogram
system.membus.snoop_fanout::total                5569                       # Request fanout histogram
system.membus.respLayer1.occupancy           18312500                       # Layer occupancy (ticks)
system.membus.respLayer1.utilization              6.3                       # Layer utilization (%)
system.membus.reqLayer0.occupancy            15325500                       # Layer occupancy (ticks)
system.membus.reqLayer0.utilization               5.3                       # Layer utilization (%)
system.tol2bus.pwrStateResidencyTicks::UNDEFINED    289475000                       # Cumulative time (in ticks) in various power states
system.tol2bus.trans_dist::ReadResp               678                       # Transaction distribution
system.tol2bus.trans_dist::WritebackDirty         7494                       # Transaction distribution
system.tol2bus.trans_dist::WritebackClean          102                       # Transaction distribution
system.tol2bus.trans_dist::CleanEvict              23                       # Transaction distribution
system.tol2bus.trans_dist::ReadExReq             4947                       # Transaction distribution
system.tol2bus.trans_dist::ReadExResp            4946                       # Transaction distribution
system.tol2bus.trans_dist::ReadCleanReq           545                       # Transaction distribution
system.tol2bus.trans_dist::ReadSharedReq          133                       # Transaction distribution
system.tol2bus.pkt_count_system.cpu.icache.mem_side::system.l2.cpu_side         1192                       # Packet count per connected master and slave (bytes)
system.tol2bus.pkt_count_system.cpu.dcache.mem_side::system.l2.cpu_side        14868                       # Packet count per connected master and slave (bytes)
system.tol2bus.pkt_count::total                 16060                       # Packet count per connected master and slave (bytes)
system.tol2bus.pkt_size_system.cpu.icache.mem_side::system.l2.cpu_side        20704                       # Cumulative packet size per connected master and slave (bytes)
system.tol2bus.pkt_size_system.cpu.dcache.mem_side::system.l2.cpu_side       313152                       # Cumulative packet size per connected master and slave (bytes)
system.tol2bus.pkt_size::total                 333856                       # Cumulative packet size per connected master and slave (bytes)
system.tol2bus.snoops                            2808                       # Total snoops (count)
system.tol2bus.snoopTraffic                     89184                       # Total snoop traffic (bytes)
system.tol2bus.snoop_fanout::samples             8433                       # Request fanout histogram
system.tol2bus.snoop_fanout::mean            0.004150                       # Request fanout histogram
system.tol2bus.snoop_fanout::stdev           0.064293                       # Request fanout histogram
system.tol2bus.snoop_fanout::underflows             0      0.00%      0.00% # Request fanout histogram
system.tol2bus.snoop_fanout::0                   8398     99.58%     99.58% # Request fanout histogram
system.tol2bus.snoop_fanout::1                     35      0.42%    100.00% # Request fanout histogram
system.tol2bus.snoop_fanout::2                      0      0.00%    100.00% # Request fanout histogram
system.tol2bus.snoop_fanout::overflows              0      0.00%    100.00% # Request fanout histogram
system.tol2bus.snoop_fanout::min_value              0                       # Request fanout histogram
system.tol2bus.snoop_fanout::max_value              1                       # Request fanout histogram
system.tol2bus.snoop_fanout::total               8433                       # Request fanout histogram
system.tol2bus.reqLayer0.occupancy            7622500                       # Layer occupancy (ticks)
system.tol2bus.reqLayer0.utilization              2.6                       # Layer utilization (%)
system.tol2bus.respLayer1.occupancy           5079000                       # Layer occupancy (ticks)
system.tol2bus.respLayer1.utilization             1.8                       # Layer utilization (%)
system.tol2bus.respLayer0.occupancy            545000                       # Layer occupancy (ticks)
system.tol2bus.respLayer0.utilization             0.2                       # Layer utilization (%)
system.voltage_domain.voltage                       1                       # Voltage in Volts
system.clk_domain.clock                          1000                       # Clock period in ticks
system.l2.pwrStateResidencyTicks::UNDEFINED    289475000                       # Cumulative time (in ticks) in various power states
system.l2.demand_hits::.cpu.inst                   44                       # number of demand (read+write) hits
system.l2.demand_hits::.cpu.data                   11                       # number of demand (read+write) hits
system.l2.demand_hits::total                       55                       # number of demand (read+write) hits
system.l2.overall_hits::.cpu.inst                  44                       # number of overall hits
system.l2.overall_hits::.cpu.data                  11                       # number of overall hits
system.l2.overall_hits::total                      55                       # number of overall hits
system.l2.demand_misses::.cpu.inst                501                       # number of demand (read+write) misses
system.l2.demand_misses::.cpu.data               5069                       # number of demand (read+write) misses
system.l2.demand_misses::total                   5570                       # number of demand (read+write) misses
system.l2.overall_misses::.cpu.inst               501                       # number of overall misses
system.l2.overall_misses::.cpu.data              5069                       # number of overall misses
system.l2.overall_misses::total                  5570                       # number of overall misses
system.l2.demand_miss_latency::.cpu.inst     38242000                       # number of demand (read+write) miss cycles
system.l2.demand_miss_latency::.cpu.data    415439500                       # number of demand (read+write) miss cycles
system.l2.demand_miss_latency::total        453681500                       # number of demand (read+write) miss cycles
system.l2.overall_miss_latency::.cpu.inst     38242000                       # number of overall miss cycles
system.l2.overall_miss_latency::.cpu.data    415439500                       # number of overall miss cycles
system.l2.overall_miss_latency::total       453681500                       # number of overall miss cycles
system.l2.demand_accesses::.cpu.inst              545                       # number of demand (read+write) accesses
system.l2.demand_accesses::.cpu.data             5080                       # number of demand (read+write) accesses
system.l2.demand_accesses::total                 5625                       # number of demand (read+write) accesses
system.l2.overall_accesses::.cpu.inst             545                       # number of overall (read+write) accesses
system.l2.overall_accesses::.cpu.data            5080                       # number of overall (read+write) accesses
system.l2.overall_accesses::total                5625                       # number of overall (read+write) accesses
system.l2.demand_miss_rate::.cpu.inst        0.919266                       # miss rate for demand accesses
system.l2.demand_miss_rate::.cpu.data        0.997835                       # miss rate for demand accesses
system.l2.demand_miss_rate::total            0.990222                       # miss rate for demand accesses
system.l2.overall_miss_rate::.cpu.inst       0.919266                       # miss rate for overall accesses
system.l2.overall_miss_rate::.cpu.data       0.997835                       # miss rate for overall accesses
system.l2.overall_miss_rate::total           0.990222                       # miss rate for overall accesses
system.l2.demand_avg_miss_latency::.cpu.inst 76331.337325                       # average overall miss latency
system.l2.demand_avg_miss_latency::.cpu.data 81956.894851                       # average overall miss latency
system.l2.demand_avg_miss_latency::total 81450.897666                       # average overall miss latency
system.l2.overall_avg_miss_latency::.cpu.inst 76331.337325                       # average overall miss latency
system.l2.overall_avg_miss_latency::.cpu.data 81956.894851                       # average overall miss latency
system.l2.overall_avg_miss_latency::total 81450.897666                       # average overall miss latency
system.l2.blocked_cycles::no_mshrs                  0                       # number of cycles access was blocked
system.l2.blocked_cycles::no_targets                0                       # number of cycles access was blocked
system.l2.blocked::no_mshrs                         0                       # number of cycles access was blocked
system.l2.blocked::no_targets                       0                       # number of cycles access was blocked
system.l2.avg_blocked_cycles::no_mshrs            nan                       # average number of cycles each access was blocked
system.l2.avg_blocked_cycles::no_targets          nan                       # average number of cycles each access was blocked
system.l2.writebacks::.writebacks                2787                       # number of writebacks
system.l2.writebacks::total                      2787                       # number of writebacks
system.l2.demand_mshr_misses::.cpu.inst           501                       # number of demand (read+write) MSHR misses
system.l2.demand_mshr_misses::.cpu.data          5069                       # number of demand (read+write) MSHR misses
system.l2.demand_mshr_misses::total              5570                       # number of demand (read+write) MSHR misses
system.l2.overall_mshr_misses::.cpu.inst          501                       # number of overall MSHR misses
system.l2.overall_mshr_misses::.cpu.data         5069                       # number of overall MSHR misses
system.l2.overall_mshr_misses::total             5570                       # number of overall MSHR misses
system.l2.demand_mshr_miss_latency::.cpu.inst     33232000                       # number of demand (read+write) MSHR miss cycles
system.l2.demand_mshr_miss_latency::.cpu.data    364759500                       # number of demand (read+write) MSHR miss cycles
system.l2.demand_mshr_miss_latency::total    397991500                       # number of demand (read+write) MSHR miss cycles
system.l2.overall_mshr_miss_latency::.cpu.inst     33232000                       # number of overall MSHR miss cycles
system.l2.overall_mshr_miss_latency::.cpu.data    364759500                       # number of overall MSHR miss cycles
system.l2.overall_mshr_miss_latency::total    397991500                       # number of overall MSHR miss cycles
system.l2.demand_mshr_miss_rate::.cpu.inst     0.919266                       # mshr miss rate for demand accesses
system.l2.demand_mshr_miss_rate::.cpu.data     0.997835                       # mshr miss rate for demand accesses
system.l2.demand_mshr_miss_rate::total       0.990222                       # mshr miss rate for demand accesses
system.l2.overall_mshr_miss_rate::.cpu.inst     0.919266                       # mshr miss rate for overall accesses
system.l2.overall_mshr_miss_rate::.cpu.data     0.997835                       # mshr miss rate for overall accesses
system.l2.overall_mshr_miss_rate::total      0.990222                       # mshr miss rate for overall accesses
system.l2.demand_avg_mshr_miss_latency::.cpu.inst 66331.337325                       # average overall mshr miss latency
system.l2.demand_avg_mshr_miss_latency::.cpu.data 71958.867627                       # average overall mshr miss latency
system.l2.demand_avg_mshr_miss_latency::total 71452.692998                       # average overall mshr miss latency
system.l2.overall_avg_mshr_miss_latency::.cpu.inst 66331.337325                       # average overall mshr miss latency
system.l2.overall_avg_mshr_miss_latency::.cpu.data 71958.867627                       # average overall mshr miss latency
system.l2.overall_avg_mshr_miss_latency::total 71452.692998                       # average overall mshr miss latency
system.l2.replacements                           2808                       # number of replacements
system.l2.WritebackDirty_hits::.writebacks         4707                       # number of WritebackDirty hits
system.l2.WritebackDirty_hits::total             4707                       # number of WritebackDirty hits
system.l2.WritebackDirty_accesses::.writebacks         4707                       # number of WritebackDirty accesses(hits+misses)
system.l2.WritebackDirty_accesses::total         4707                       # number of WritebackDirty accesses(hits+misses)
system.l2.WritebackClean_hits::.writebacks           99                       # number of WritebackClean hits
system.l2.WritebackClean_hits::total               99                       # number of WritebackClean hits
system.l2.WritebackClean_accesses::.writebacks           99                       # number of WritebackClean accesses(hits+misses)
system.l2.WritebackClean_accesses::total           99                       # number of WritebackClean accesses(hits+misses)
system.l2.ReadExReq_misses::.cpu.data            4947                       # number of ReadExReq misses
system.l2.ReadExReq_misses::total                4947                       # number of ReadExReq misses
system.l2.ReadExReq_miss_latency::.cpu.data    405510500                       # number of ReadExReq miss cycles
system.l2.ReadExReq_miss_latency::total     405510500                       # number of ReadExReq miss cycles
system.l2.ReadExReq_accesses::.cpu.data          4947                       # number of ReadExReq accesses(hits+misses)
system.l2.ReadExReq_accesses::total              4947                       # number of ReadExReq accesses(hits+misses)
system.l2.ReadExReq_miss_rate::.cpu.data            1                       # miss rate for ReadExReq accesses
system.l2.ReadExReq_miss_rate::total                1                       # miss rate for ReadExReq accesses
system.l2.ReadExReq_avg_miss_latency::.cpu.data 81970.992521                       # average ReadExReq miss latency
system.l2.ReadExReq_avg_miss_latency::total 81970.992521                       # average ReadExReq miss latency
system.l2.ReadExReq_mshr_misses::.cpu.data         4947                       # number of ReadExReq MSHR misses
system.l2.ReadExReq_mshr_misses::total           4947                       # number of ReadExReq MSHR misses
system.l2.ReadExReq_mshr_miss_latency::.cpu.data    356050500                       # number of ReadExReq MSHR miss cycles
system.l2.ReadExReq_mshr_miss_latency::total    356050500                       # number of ReadExReq MSHR miss cycles
system.l2.ReadExReq_mshr_miss_rate::.cpu.data            1                       # mshr miss rate for ReadExReq accesses
system.l2.ReadExReq_mshr_miss_rate::total            1                       # mshr miss rate for ReadExReq accesses
system.l2.ReadExReq_avg_mshr_miss_latency::.cpu.data 71973.013948                       # average ReadExReq mshr miss latency
system.l2.ReadExReq_avg_mshr_miss_latency::total 71973.013948                       # average ReadExReq mshr miss latency
system.l2.ReadCleanReq_hits::.cpu.inst             44                       # number of ReadCleanReq hits
system.l2.ReadCleanReq_hits::total                 44                       # number of ReadCleanReq hits
system.l2.ReadCleanReq_misses::.cpu.inst          501                       # number of ReadCleanReq misses
system.l2.ReadCleanReq_misses::total              501                       # number of ReadCleanReq misses
system.l2.ReadCleanReq_miss_latency::.cpu.inst     38242000                       # number of ReadCleanReq miss cycles
system.l2.ReadCleanReq_miss_latency::total     38242000                       # number of ReadCleanReq miss cycles
system.l2.ReadCleanReq_accesses::.cpu.inst          545                       # number of ReadCleanReq accesses(hits+misses)
system.l2.ReadCleanReq_accesses::total            545                       # number of ReadCleanReq accesses(hits+misses)
system.l2.ReadCleanReq_miss_rate::.cpu.inst     0.919266                       # miss rate for ReadCleanReq accesses
system.l2.ReadCleanReq_miss_rate::total      0.919266                       # miss rate for ReadCleanReq accesses
system.l2.ReadCleanReq_avg_miss_latency::.cpu.inst 76331.337325                       # average ReadCleanReq miss latency
system.l2.ReadCleanReq_avg_miss_latency::total 76331.337325                       # average ReadCleanReq miss latency
system.l2.ReadCleanReq_mshr_misses::.cpu.inst          501                       # number of ReadCleanReq MSHR misses
system.l2.ReadCleanReq_mshr_misses::total          501                       # number of ReadCleanReq MSHR misses
system.l2.ReadCleanReq_mshr_miss_latency::.cpu.inst     33232000                       # number of ReadCleanReq MSHR miss cycles
system.l2.ReadCleanReq_mshr_miss_latency::total     33232000                       # number of ReadCleanReq MSHR miss cycles
system.l2.ReadCleanReq_mshr_miss_rate::.cpu.inst     0.919266                       # mshr miss rate for ReadCleanReq accesses
system.l2.ReadCleanReq_mshr_miss_rate::total     0.919266                       # mshr miss rate for ReadCleanReq accesses
system.l2.ReadCleanReq_avg_mshr_miss_latency::.cpu.inst 66331.337325                       # average ReadCleanReq mshr miss latency
system.l2.ReadCleanReq_avg_mshr_miss_latency::total 66331.337325                       # average ReadCleanReq mshr miss latency
system.l2.ReadSharedReq_hits::.cpu.data            11                       # number of ReadSharedReq hits
system.l2.ReadSharedReq_hits::total                11                       # number of ReadSharedReq hits
system.l2.ReadSharedReq_misses::.cpu.data          122                       # number of ReadSharedReq misses
system.l2.ReadSharedReq_misses::total             122                       # number of ReadSharedReq misses
system.l2.ReadSharedReq_miss_latency::.cpu.data      9929000                       # number of ReadSharedReq miss cycles
system.l2.ReadSharedReq_miss_latency::total      9929000                       # number of ReadSharedReq miss cycles
system.l2.ReadSharedReq_accesses::.cpu.data          133                       # number of ReadSharedReq accesses(hits+misses)
system.l2.ReadSharedReq_accesses::total           133                       # number of ReadSharedReq accesses(hits+misses)
system.l2.ReadSharedReq_miss_rate::.cpu.data     0.917293                       # miss rate for ReadSharedReq accesses
system.l2.ReadSharedReq_miss_rate::total     0.917293                       # miss rate for ReadSharedReq accesses
system.l2.ReadSharedReq_avg_miss_latency::.cpu.data 81385.245902                       # average ReadSharedReq miss latency
system.l2.ReadSharedReq_avg_miss_latency::total 81385.245902                       # average ReadSharedReq miss latency
system.l2.ReadSharedReq_mshr_misses::.cpu.data          122                       # number of ReadSharedReq MSHR misses
system.l2.ReadSharedReq_mshr_misses::total          122                       # number of ReadSharedReq MSHR misses
system.l2.ReadSharedReq_mshr_miss_latency::.cpu.data      8709000                       # number of ReadSharedReq MSHR miss cycles
system.l2.ReadSharedReq_mshr_miss_latency::total      8709000                       # number of ReadSharedReq MSHR miss cycles
system.l2.ReadSharedReq_mshr_miss_rate::.cpu.data     0.917293                       # mshr miss rate for ReadSharedReq accesses
system.l2.ReadSharedReq_mshr_miss_rate::total     0.917293                       # mshr miss rate for ReadSharedReq accesses
system.l2.ReadSharedReq_avg_mshr_miss_latency::.cpu.data 71385.245902                       # average ReadSharedReq mshr miss latency
system.l2.ReadSharedReq_avg_mshr_miss_latency::total 71385.245902                       # average ReadSharedReq mshr miss latency
system.l2.tags.pwrStateResidencyTicks::UNDEFINED    289475000                       # Cumulative time (in ticks) in various power states
system.l2.tags.tagsinuse                  1999.299148                       # Cycle average of tags in use
system.l2.tags.total_refs                       10432                       # Total number of references to valid blocks.
system.l2.tags.sampled_refs                      5569                       # Sample count of references to valid blocks.
system.l2.tags.avg_refs                      1.873227                       # Average number of references to valid blocks.
system.l2.tags.warmup_cycle                     77000                       # Cycle when the warmup percentage was hit.
system.l2.tags.occ_blocks::.cpu.inst       444.246450                       # Average occupied blocks per requestor
system.l2.tags.occ_blocks::.cpu.data      1555.052698                       # Average occupied blocks per requestor
system.l2.tags.occ_percent::.cpu.inst        0.006779                       # Average percentage of cache occupancy
system.l2.tags.occ_percent::.cpu.data        0.023728                       # Average percentage of cache occupancy
system.l2.tags.occ_percent::total            0.030507                       # Average percentage of cache occupancy
system.l2.tags.occ_task_id_blocks::1024          2761                       # Occupied blocks per task id
system.l2.tags.age_task_id_blocks_1024::0          191                       # Occupied blocks per task id
system.l2.tags.age_task_id_blocks_1024::1         1765                       # Occupied blocks per task id
system.l2.tags.age_task_id_blocks_1024::2          805                       # Occupied blocks per task id
system.l2.tags.occ_task_id_percent::1024     0.042130                       # Percentage of cache occupancy per task id
system.l2.tags.tag_accesses                     47301                       # Number of tag accesses
system.l2.tags.data_accesses                    47301                       # Number of data accesses
system.cpu_voltage_domain.voltage                   1                       # Voltage in Volts
system.mem_ctrls.pwrStateResidencyTicks::UNDEFINED    289475000                       # Cumulative time (in ticks) in various power states
system.mem_ctrls.bytes_read::.cpu.inst          16032                       # Number of bytes read from this memory
system.mem_ctrls.bytes_read::.cpu.data         162176                       # Number of bytes read from this memory
system.mem_ctrls.bytes_read::total             178208                       # Number of bytes read from this memory
system.mem_ctrls.bytes_inst_read::.cpu.inst        16032                       # Number of instructions bytes read from this memory
system.mem_ctrls.bytes_inst_read::total         16032                       # Number of instructions bytes read from this memory
system.mem_ctrls.bytes_written::.writebacks        89184                       # Number of bytes written to this memory
system.mem_ctrls.bytes_written::total           89184                       # Number of bytes written to this memory
system.mem_ctrls.num_reads::.cpu.inst             501                       # Number of read requests responded to by this memory
system.mem_ctrls.num_reads::.cpu.data            5068                       # Number of read requests responded to by this memory
system.mem_ctrls.num_reads::total                5569                       # Number of read requests responded to by this memory
system.mem_ctrls.num_writes::.writebacks         2787                       # Number of write requests responded to by this memory
system.mem_ctrls.num_writes::total               2787                       # Number of write requests responded to by this memory
system.mem_ctrls.bw_read::.cpu.inst          55383021                       # Total read bandwidth from this memory (bytes/s)
system.mem_ctrls.bw_read::.cpu.data         560241817                       # Total read bandwidth from this memory (bytes/s)
system.mem_ctrls.bw_read::total             615624838                       # Total read bandwidth from this memory (bytes/s)
system.mem_ctrls.bw_inst_read::.cpu.inst     55383021                       # Instruction read bandwidth from this memory (bytes/s)
system.mem_ctrls.bw_inst_read::total         55383021                       # Instruction read bandwidth from this memory (bytes/s)
system.mem_ctrls.bw_write::.writebacks      308088781                       # Write bandwidth from this memory (bytes/s)
system.mem_ctrls.bw_write::total            308088781                       # Write bandwidth from this memory (bytes/s)
system.mem_ctrls.bw_total::.writebacks      308088781                       # Total bandwidth to/from this memory (bytes/s)
system.mem_ctrls.bw_total::.cpu.inst         55383021                       # Total bandwidth to/from this memory (bytes/s)
system.mem_ctrls.bw_total::.cpu.data        560241817                       # Total bandwidth to/from this memory (bytes/s)
system.mem_ctrls.bw_total::total            923713619                       # Total bandwidth to/from this memory (bytes/s)
system.mem_ctrls.avgPriority_.writebacks::samples      2787.00                       # Average QoS priority value for accepted requests
system.mem_ctrls.avgPriority_.cpu.inst::samples       501.00                       # Average QoS priority value for accepted requests
system.mem_ctrls.avgPriority_.cpu.data::samples      5068.00                       # Average QoS priority value for accepted requests
system.mem_ctrls.priorityMinLatency      0.000000018750                       # per QoS priority minimum request to response latency (s)
system.mem_ctrls.priorityMaxLatency      0.000017982500                       # per QoS priority maximum request to response latency (s)
system.mem_ctrls.numReadWriteTurnArounds          173                       # Number of turnarounds from READ to WRITE
system.mem_ctrls.numWriteReadTurnArounds          173                       # Number of turnarounds from WRITE to READ
system.mem_ctrls.numStayReadState               13613                       # Number of times bus staying in READ state
system.mem_ctrls.numStayWriteState               2595                       # Number of times bus staying in WRITE state
system.mem_ctrls.readReqs                        5569                       # Number of read requests accepted
system.mem_ctrls.writeReqs                       2787                       # Number of write requests accepted
system.mem_ctrls.readBursts                      5569                       # Number of DRAM read bursts, including those serviced by the write queue
system.mem_ctrls.writeBursts                     2787                       # Number of DRAM write bursts, including those merged in the write queue
system.mem_ctrls.servicedByWrQ                      0                       # Number of DRAM read bursts serviced by the write queue
system.mem_ctrls.mergedWrBursts                     0                       # Number of DRAM write bursts merged with an existing one
system.mem_ctrls.neitherReadNorWriteReqs            0                       # Number of requests that are neither read nor write
system.mem_ctrls.perBankRdBursts::0               460                       # Per bank write bursts
system.mem_ctrls.perBankRdBursts::1               367                       # Per bank write bursts
system.mem_ctrls.perBankRdBursts::2               387                       # Per bank write bursts
system.mem_ctrls.perBankRdBursts::3               325                       # Per bank write bursts
system.mem_ctrls.perBankRdBursts::4               421                       # Per bank write bursts
system.mem_ctrls.perBankRdBursts::5               333                       # Per bank write bursts
system.mem_ctrls.perBankRdBursts::6               310                       # Per bank write bursts
system.mem_ctrls.perBankRdBursts::7               322                       # Per bank write bursts
system.mem_ctrls.perBankRdBursts::8               350                       # Per bank write bursts
system.mem_ctrls.perBankRdBursts::9               310                       # Per bank write bursts
system.mem_ctrls.perBankRdBursts::10              343                       # Per bank write bursts
system.mem_ctrls.perBankRdBursts::11              304                       # Per bank write bursts
system.mem_ctrls.perBankRdBursts::12              304                       # Per bank write bursts
system.mem_ctrls.perBankRdBursts::13              334                       # Per bank write bursts
system.mem_ctrls.perBankRdBursts::14              349                       # Per bank write bursts
system.mem_ctrls.perBankRdBursts::15              350                       # Per bank write bursts
system.mem_ctrls.perBankWrBursts::0               168                       # Per bank write bursts
system.mem_ctrls.perBankWrBursts::1               168                       # Per bank write bursts
system.mem_ctrls.perBankWrBursts::2               171                       # Per bank write bursts
system.mem_ctrls.perBankWrBursts::3               168                       # Per bank write bursts
system.mem_ctrls.perBankWrBursts::4               169                       # Per bank write bursts
system.mem_ctrls.perBankWrBursts::5               168                       # Per bank write bursts
system.mem_ctrls.perBankWrBursts::6               173                       # Per bank write bursts
system.mem_ctrls.perBankWrBursts::7               176                       # Per bank write bursts
system.mem_ctrls.perBankWrBursts::8               176                       # Per bank write bursts
system.mem_ctrls.perBankWrBursts::9               176                       # Per bank write bursts
system.mem_ctrls.perBankWrBursts::10              176                       # Per bank write bursts
system.mem_ctrls.perBankWrBursts::11              176                       # Per bank write bursts
system.mem_ctrls.perBankWrBursts::12              176                       # Per bank write bursts
system.mem_ctrls.perBankWrBursts::13              176                       # Per bank write bursts
system.mem_ctrls.perBankWrBursts::14              176                       # Per bank write bursts
system.mem_ctrls.perBankWrBursts::15              175                       # Per bank write bursts
system.mem_ctrls.avgRdQLen                       1.70                       # Average read queue length when enqueuing
system.mem_ctrls.avgWrQLen                      13.09                       # Average write queue length when enqueuing
system.mem_ctrls.totQLat                     64919750                       # Total ticks spent queuing
system.mem_ctrls.totBusLat                   27845000                       # Total ticks spent in databus transfers
system.mem_ctrls.totMemAccLat               169338500                       # Total ticks spent from burst creation until serviced by the DRAM
system.mem_ctrls.avgQLat                     11657.34                       # Average queueing delay per DRAM burst
system.mem_ctrls.avgBusLat                    5000.00                       # Average bus latency per DRAM burst
system.mem_ctrls.avgMemAccLat                30407.34                       # Average memory access latency per DRAM burst
system.mem_ctrls.numRdRetry                         0                       # Number of times read queue was full causing retry
system.mem_ctrls.numWrRetry                         0                       # Number of times write queue was full causing retry
system.mem_ctrls.readRowHits                     4780                       # Number of row buffer hits during reads
system.mem_ctrls.writeRowHits                    2401                       # Number of row buffer hits during writes
system.mem_ctrls.readRowHitRate                 85.83                       # Row buffer hit rate for reads
system.mem_ctrls.writeRowHitRate                86.15                       # Row buffer hit rate for writes
system.mem_ctrls.readPktSize::0                     0                       # Read request sizes (log2)
system.mem_ctrls.readPktSize::1                     0                       # Read request sizes (log2)
system.mem_ctrls.readPktSize::2                     0                       # Read request sizes (log2)
system.mem_ctrls.readPktSize::3                     0                       # Read request sizes (log2)
system.mem_ctrls.readPktSize::4                     0                       # Read request sizes (log2)
system.mem_ctrls.readPktSize::5                  5569                       # Read request sizes (log2)
system.mem_ctrls.readPktSize::6                     0                       # Read request sizes (log2)
system.mem_ctrls.writePktSize::0                    0                       # Write request sizes (log2)
system.mem_ctrls.writePktSize::1                    0                       # Write request sizes (log2)
system.mem_ctrls.writePktSize::2                    0                       # Write request sizes (log2)
system.mem_ctrls.writePktSize::3                    0                       # Write request sizes (log2)
system.mem_ctrls.writePktSize::4                    0                       # Write request sizes (log2)
system.mem_ctrls.writePktSize::5                 2787                       # Write request sizes (log2)
system.mem_ctrls.writePktSize::6                    0                       # Write request sizes (log2)
system.mem_ctrls.rdQLenPdf::0                    3227                       # What read queue length does an incoming req see
system.mem_ctrls.rdQLenPdf::1                    2328                       # What read queue length does an incoming req see
system.mem_ctrls.rdQLenPdf::2                      14                       # What read queue length does an incoming req see
system.mem_ctrls.rdQLenPdf::3                       0                       # What read queue length does an incoming req see
system.mem_ctrls.rdQLenPdf::4                       0                       # What read queue length does an incoming req see
system.mem_ctrls.rdQLenPdf::5                       0                       # What read queue length does an incoming req see
system.mem_ctrls.rdQLenPdf::6                       0                       # What read queue length does an incoming req see
system.mem_ctrls.rdQLenPdf::7                       0                       # What read queue length does an incoming req see
system.mem_ctrls.rdQLenPdf::8                       0                       # What read queue length does an incoming req see
system.mem_ctrls.rdQLenPdf::9                       0                       # What read queue length does an incoming req see
system.mem_ctrls.rdQLenPdf::10                      0                       # What read queue length does an incoming req see
system.mem_ctrls.rdQLenPdf::11                      0                       # What read queue length does an incoming req see
system.mem_ctrls.rdQLenPdf::12                      0                       # What read queue length does an incoming req see
system.mem_ctrls.rdQLenPdf::13                      0                       # What read queue length does an incoming req see
system.mem_ctrls.rdQLenPdf::14                      0                       # What read queue length does an incoming req see
system.mem_ctrls.rdQLenPdf::15                      0                       # What read queue length does an incoming req see
system.mem_ctrls.rdQLenPdf::16                      0                       # What read queue length does an incoming req see
system.mem_ctrls.rdQLenPdf::17                      0                       # What read queue length does an incoming req see
system.mem_ctrls.rdQLenPdf::18                      0                       # What read queue length does an incoming req see
system.mem_ctrls.rdQLenPdf::19                      0                       # What read queue length does an incoming req see
system.mem_ctrls.rdQLenPdf::20                      0                       # What read queue length does an incoming req see
system.mem_ctrls.rdQLenPdf::21                      0                       # What read queue length does an incoming req see
system.mem_ctrls.rdQLenPdf::22                      0                       # What read queue length does an incoming req see
system.mem_ctrls.rdQLenPdf::23                      0                       # What read queue length does an incoming req see
system.mem_ctrls.rdQLenPdf::24                      0                       # What read queue length does an incoming req see
system.mem_ctrls.rdQLenPdf::25                      0                       # What read queue length does an incoming req see
system.mem_ctrls.rdQLenPdf::26                      0                       # What read queue length does an incoming req see
system.mem_ctrls.rdQLenPdf::27                      0                       # What read queue length does an incoming req see
system.mem_ctrls.rdQLenPdf::28                      0                       # What read queue length does an incoming req see
system.mem_ctrls.rdQLenPdf::29                      0                       # What read queue length does an incoming req see
system.mem_ctrls.rdQLenPdf::30                      0                       # What read queue length does an incoming req see
system.mem_ctrls.rdQLenPdf::31                      0                       # What read queue length does an incoming req see
system.mem_ctrls.wrQLenPdf::0                       1                       # What write queue length does an incoming req see
system.mem_ctrls.wrQLenPdf::1                       1                       # What write queue length does an incoming req see
system.mem_ctrls.wrQLenPdf::2                       1                       # What write queue length does an incoming req see
system.mem_ctrls.wrQLenPdf::3                       1                       # What write queue length does an incoming req see
system.mem_ctrls.wrQLenPdf::4                       1                       # What write queue length does an incoming req see
system.mem_ctrls.wrQLenPdf::5                       1                       # What write queue length does an incoming req see
system.mem_ctrls.wrQLenPdf::6                       1                       # What write queue length does an incoming req see
system.mem_ctrls.wrQLenPdf::7                       1                       # What write queue length does an incoming req see
system.mem_ctrls.wrQLenPdf::8                       1                       # What write queue length does an incoming req see
system.mem_ctrls.wrQLenPdf::9                       1                       # What write queue length does an incoming req see
system.mem_ctrls.wrQLenPdf::10                      1                       # What write queue length does an incoming req see
system.mem_ctrls.wrQLenPdf::11                      1                       # What write queue length does an incoming req see
system.mem_ctrls.wrQLenPdf::12                      1                       # What write queue length does an incoming req see
system.mem_ctrls.wrQLenPdf::13                      1                       # What write queue length does an incoming req see
system.mem_ctrls.wrQLenPdf::14                      1                       # What write queue length does an incoming req see
system.mem_ctrls.wrQLenPdf::15                      1                       # What write queue length does an incoming req see
system.mem_ctrls.wrQLenPdf::16                      1                       # What write queue length does an incoming req see
system.mem_ctrls.wrQLenPdf::17                    137                       # What write queue length does an incoming req see
system.mem_ctrls.wrQLenPdf::18                    187                       # What write queue length does an incoming req see
system.mem_ctrls.wrQLenPdf::19                    173                       # What write queue length does an incoming req see
system.mem_ctrls.wrQLenPdf::20                    173                       # What write queue length does an incoming req see
system.mem_ctrls.wrQLenPdf::21                    173                       # What write queue length does an incoming req see
system.mem_ctrls.wrQLenPdf::22                    173                       # What write queue length does an incoming req see
system.mem_ctrls.wrQLenPdf::23                    177                       # What write queue length does an incoming req see
system.mem_ctrls.wrQLenPdf::24                    193                       # What write queue length does an incoming req see
system.mem_ctrls.wrQLenPdf::25                    173                       # What write queue length does an incoming req see
system.mem_ctrls.wrQLenPdf::26                    173                       # What write queue length does an incoming req see
system.mem_ctrls.wrQLenPdf::27                    173                       # What write queue length does an incoming req see
system.mem_ctrls.wrQLenPdf::28                    173                       # What write queue length does an incoming req see
system.mem_ctrls.wrQLenPdf::29                    173                       # What write queue length does an incoming req see
system.mem_ctrls.wrQLenPdf::30                    173                       # What write queue length does an incoming req see
system.mem_ctrls.wrQLenPdf::31                    173                       # What write queue length does an incoming req see
system.mem_ctrls.wrQLenPdf::32                    173                       # What write queue length does an incoming req see
system.mem_ctrls.wrQLenPdf::33                      0                       # What write queue length does an incoming req see
system.mem_ctrls.wrQLenPdf::34                      0                       # What write queue length does an incoming req see
system.mem_ctrls.wrQLenPdf::35                      0                       # What write queue length does an incoming req see
system.mem_ctrls.wrQLenPdf::36                      0                       # What write queue length does an incoming req see
system.mem_ctrls.wrQLenPdf::37                      0                       # What write queue length does an incoming req see
system.mem_ctrls.wrQLenPdf::38                      0                       # What write queue length does an incoming req see
system.mem_ctrls.wrQLenPdf::39                      0                       # What write queue length does an incoming req see
system.mem_ctrls.wrQLenPdf::40                      0                       # What write queue length does an incoming req see
system.mem_ctrls.wrQLenPdf::41                      0                       # What write queue length does an incoming req see
system.mem_ctrls.wrQLenPdf::42                      0                       # What write queue length does an incoming req see
system.mem_ctrls.wrQLenPdf::43                      0                       # What write queue length does an incoming req see
system.mem_ctrls.wrQLenPdf::44                      0                       # What write queue length does an incoming req see
system.mem_ctrls.wrQLenPdf::45                      0                       # What write queue length does an incoming req see
system.mem_ctrls.wrQLenPdf::46                      0                       # What write queue length does an incoming req see
system.mem_ctrls.wrQLenPdf::47                      0                       # What write queue length does an incoming req see
system.mem_ctrls.wrQLenPdf::48                      0                       # What write queue length does an incoming req see
system.mem_ctrls.wrQLenPdf::49                      0                       # What write queue length does an incoming req see
system.mem_ctrls.wrQLenPdf::50                      0                       # What write queue length does an incoming req see
system.mem_ctrls.wrQLenPdf::51                      0                       # What write queue length does an incoming req see
system.mem_ctrls.wrQLenPdf::52                      0                       # What write queue length does an incoming req see
system.mem_ctrls.wrQLenPdf::53                      0                       # What write queue length does an incoming req see
system.mem_ctrls.wrQLenPdf::54                      0                       # What write queue length does an incoming req see
system.mem_ctrls.wrQLenPdf::55                      0                       # What write queue length does an incoming req see
system.mem_ctrls.wrQLenPdf::56                      0                       # What write queue length does an incoming req see
system.mem_ctrls.wrQLenPdf::57                      0                       # What write queue length does an incoming req see
system.mem_ctrls.wrQLenPdf::58                      0                       # What write queue length does an incoming req see
system.mem_ctrls.wrQLenPdf::59                      0                       # What write queue length does an incoming req see
system.mem_ctrls.wrQLenPdf::60                      0                       # What write queue length does an incoming req see
system.mem_ctrls.wrQLenPdf::61                      0                       # What write queue length does an incoming req see
system.mem_ctrls.wrQLenPdf::62                      0                       # What write queue length does an incoming req see
system.mem_ctrls.wrQLenPdf::63                      0                       # What write queue length does an incoming req see
system.mem_ctrls.bytesPerActivate::samples         1148                       # Bytes accessed per row activation
system.mem_ctrls.bytesPerActivate::mean    461.993031                       # Bytes accessed per row activation
system.mem_ctrls.bytesPerActivate::gmean   416.795857                       # Bytes accessed per row activation
system.mem_ctrls.bytesPerActivate::stdev   148.389882                       # Bytes accessed per row activation
system.mem_ctrls.bytesPerActivate::0-127           64      5.57%      5.57% # Bytes accessed per row activation
system.mem_ctrls.bytesPerActivate::128-255           67      5.84%     11.41% # Bytes accessed per row activation
system.mem_ctrls.bytesPerActivate::256-383           40      3.48%     14.90% # Bytes accessed per row activation
system.mem_ctrls.bytesPerActivate::384-511           51      4.44%     19.34% # Bytes accessed per row activation
system.mem_ctrls.bytesPerActivate::512-639          903     78.66%     98.00% # Bytes accessed per row activation
system.mem_ctrls.bytesPerActivate::640-767            5      0.44%     98.43% # Bytes accessed per row activation
system.mem_ctrls.bytesPerActivate::768-895            4      0.35%     98.78% # Bytes accessed per row activation
system.mem_ctrls.bytesPerActivate::896-1023            1      0.09%     98.87% # Bytes accessed per row activation
system.mem_ctrls.bytesPerActivate::1024-1151           13      1.13%    100.00% # Bytes accessed per row activation
system.mem_ctrls.bytesPerActivate::total         1148                       # Bytes accessed per row activation
system.mem_ctrls.rdPerTurnAround::samples          173                       # Reads before turning the bus around for writes
system.mem_ctrls.rdPerTurnAround::mean      32.179191                       # Reads before turning the bus around for writes
system.mem_ctrls.rdPerTurnAround::gmean     16.484260                       # Reads before turning the bus around for writes
system.mem_ctrls.rdPerTurnAround::stdev    212.804111                       # Reads before turning the bus around for writes
system.mem_ctrls.rdPerTurnAround::0-127           172     99.42%     99.42% # Reads before turning the bus around for writes
system.mem_ctrls.rdPerTurnAround::2688-2815            1      0.58%    100.00% # Reads before turning the bus around for writes
system.mem_ctrls.rdPerTurnAround::total           173                       # Reads before turning the bus around for writes
system.mem_ctrls.wrPerTurnAround::samples          173                       # Writes before turning the bus around for reads
system.mem_ctrls.wrPerTurnAround::mean             16                       # Writes before turning the bus around for reads
system.mem_ctrls.wrPerTurnAround::gmean     16.000000                       # Writes before turning the bus around for reads
system.mem_ctrls.wrPerTurnAround::16              173    100.00%    100.00% # Writes before turning the bus around for reads
system.mem_ctrls.wrPerTurnAround::total           173                       # Writes before turning the bus around for reads
system.mem_ctrls.bytesReadDRAM                 356416                       # Total number of bytes read from DRAM
system.mem_ctrls.bytesReadWrQ                       0                       # Total number of bytes read from write queue
system.mem_ctrls.bytesWritten                  177152                       # Total number of bytes written to DRAM
system.mem_ctrls.bytesReadSys                  178208                       # Total read bytes from the system interface side
system.mem_ctrls.bytesWrittenSys                89184                       # Total written bytes from the system interface side
system.mem_ctrls.avgRdBW                      1231.25                       # Average DRAM read bandwidth in MiByte/s
system.mem_ctrls.avgWrBW                       611.98                       # Average achieved write bandwidth in MiByte/s
system.mem_ctrls.avgRdBWSys                    615.62                       # Average system read bandwidth in MiByte/s
system.mem_ctrls.avgWrBWSys                    308.09                       # Average system write bandwidth in MiByte/s
system.mem_ctrls.peakBW                      12800.00                       # Theoretical peak bandwidth in MiByte/s
system.mem_ctrls.busUtil                        14.40                       # Data bus utilization in percentage
system.mem_ctrls.busUtilRead                     9.62                       # Data bus utilization in percentage for reads
[...]
system.cpu.icache.tags.warmup_cycle             87500                       # Cycle when the warmup percentage was hit.
system.cpu.icache.tags.occ_blocks::.cpu.inst   402.568132                       # Average occupied blocks per requestor
system.cpu.icache.tags.occ_percent::.cpu.inst     0.196566                       # Average percentage of cache occupancy
system.cpu.icache.tags.occ_percent::total     0.196566                       # Average percentage of cache occupancy
system.cpu.icache.tags.occ_task_id_blocks::1024          443                       # Occupied blocks per task id
system.cpu.icache.tags.age_task_id_blocks_1024::2          443                       # Occupied blocks per task id
system.cpu.icache.tags.occ_task_id_percent::1024     0.216309                       # Percentage of cache occupancy per task id
system.cpu.icache.tags.tag_accesses             23485                       # Number of tag accesses
system.cpu.icache.tags.data_accesses            23485                       # Number of data accesses
system.cpu.dtb.walker.pwrStateResidencyTicks::UNDEFINED    289475000                       # Cumulative time (in ticks) in various power states
system.cpu.dtb.stage2_mmu.stage2_tlb.walker.pwrStateResidencyTicks::UNDEFINED    289475000                       # Cumulative time (in ticks) in various power states
system.cpu.dcache.pwrStateResidencyTicks::UNDEFINED    289475000                       # Cumulative time (in ticks) in various power states
system.cpu.dcache.demand_hits::.cpu.data        41305                       # number of demand (read+write) hits
system.cpu.dcache.demand_hits::total            41305                       # number of demand (read+write) hits
system.cpu.dcache.overall_hits::.cpu.data        41321                       # number of overall hits
system.cpu.dcache.overall_hits::total           41321                       # number of overall hits
system.cpu.dcache.demand_misses::.cpu.data         5154                       # number of demand (read+write) misses
system.cpu.dcache.demand_misses::total           5154                       # number of demand (read+write) misses
system.cpu.dcache.overall_misses::.cpu.data         5171                       # number of overall misses
system.cpu.dcache.overall_misses::total          5171                       # number of overall misses
system.cpu.dcache.demand_miss_latency::.cpu.data    433250500                       # number of demand (read+write) miss cycles
system.cpu.dcache.demand_miss_latency::total    433250500                       # number of demand (read+write) miss cycles
system.cpu.dcache.overall_miss_latency::.cpu.data    433250500                       # number of overall miss cycles
system.cpu.dcache.overall_miss_latency::total    433250500                       # number of overall miss cycles
system.cpu.dcache.demand_accesses::.cpu.data        46459                       # number of demand (read+write) accesses
system.cpu.dcache.demand_accesses::total        46459                       # number of demand (read+write) accesses
system.cpu.dcache.overall_accesses::.cpu.data        46492                       # number of overall (read+write) accesses
system.cpu.dcache.overall_accesses::total        46492                       # number of overall (read+write) accesses
system.cpu.dcache.demand_miss_rate::.cpu.data     0.110937                       # miss rate for demand accesses
system.cpu.dcache.demand_miss_rate::total     0.110937                       # miss rate for demand accesses
system.cpu.dcache.overall_miss_rate::.cpu.data     0.111223                       # miss rate for overall accesses
system.cpu.dcache.overall_miss_rate::total     0.111223                       # miss rate for overall accesses
system.cpu.dcache.demand_avg_miss_latency::.cpu.data 84061.020567                       # average overall miss latency
system.cpu.dcache.demand_avg_miss_latency::total 84061.020567                       # average overall miss latency
system.cpu.dcache.overall_avg_miss_latency::.cpu.data 83784.664475                       # average overall miss latency
system.cpu.dcache.overall_avg_miss_latency::total 83784.664475                       # average overall miss latency
system.cpu.dcache.blocked_cycles::no_mshrs            0                       # number of cycles access was blocked
system.cpu.dcache.blocked_cycles::no_targets            0                       # number of cycles access was blocked
system.cpu.dcache.blocked::no_mshrs                 0                       # number of cycles access was blocked
system.cpu.dcache.blocked::no_targets               0                       # number of cycles access was blocked
system.cpu.dcache.avg_blocked_cycles::no_mshrs          nan                       # average number of cycles each access was blocked
system.cpu.dcache.avg_blocked_cycles::no_targets          nan                       # average number of cycles each access was blocked
system.cpu.dcache.writebacks::.writebacks         4707                       # number of writebacks
system.cpu.dcache.writebacks::total              4707                       # number of writebacks
system.cpu.dcache.demand_mshr_hits::.cpu.data           92                       # number of demand (read+write) MSHR hits
system.cpu.dcache.demand_mshr_hits::total           92                       # number of demand (read+write) MSHR hits
system.cpu.dcache.overall_mshr_hits::.cpu.data           92                       # number of overall MSHR hits
system.cpu.dcache.overall_mshr_hits::total           92                       # number of overall MSHR hits
system.cpu.dcache.demand_mshr_misses::.cpu.data         5062                       # number of demand (read+write) MSHR misses
system.cpu.dcache.demand_mshr_misses::total         5062                       # number of demand (read+write) MSHR misses
system.cpu.dcache.overall_mshr_misses::.cpu.data         5079                       # number of overall MSHR misses
system.cpu.dcache.overall_mshr_misses::total         5079                       # number of overall MSHR misses
system.cpu.dcache.demand_mshr_miss_latency::.cpu.data    421704000                       # number of demand (read+write) MSHR miss cycles
system.cpu.dcache.demand_mshr_miss_latency::total    421704000                       # number of demand (read+write) MSHR miss cycles
system.cpu.dcache.overall_mshr_miss_latency::.cpu.data    423113500                       # number of overall MSHR miss cycles
system.cpu.dcache.overall_mshr_miss_latency::total    423113500                       # number of overall MSHR miss cycles
system.cpu.dcache.demand_mshr_miss_rate::.cpu.data     0.108956                       # mshr miss rate for demand accesses
system.cpu.dcache.demand_mshr_miss_rate::total     0.108956                       # mshr miss rate for demand accesses
system.cpu.dcache.overall_mshr_miss_rate::.cpu.data     0.109245                       # mshr miss rate for overall accesses
system.cpu.dcache.overall_mshr_miss_rate::total     0.109245                       # mshr miss rate for overall accesses
system.cpu.dcache.demand_avg_mshr_miss_latency::.cpu.data 83307.783485                       # average overall mshr miss latency
system.cpu.dcache.demand_avg_mshr_miss_latency::total 83307.783485                       # average overall mshr miss latency
system.cpu.dcache.overall_avg_mshr_miss_latency::.cpu.data 83306.457964                       # average overall mshr miss latency
system.cpu.dcache.overall_avg_mshr_miss_latency::total 83306.457964                       # average overall mshr miss latency
system.cpu.dcache.replacements                   4709                       # number of replacements
system.cpu.dcache.ReadReq_hits::.cpu.data        35217                       # number of ReadReq hits
system.cpu.dcache.ReadReq_hits::total           35217                       # number of ReadReq hits
system.cpu.dcache.ReadReq_misses::.cpu.data          122                       # number of ReadReq misses
system.cpu.dcache.ReadReq_misses::total           122                       # number of ReadReq misses
system.cpu.dcache.ReadReq_miss_latency::.cpu.data      9450500                       # number of ReadReq miss cycles
system.cpu.dcache.ReadReq_miss_latency::total      9450500                       # number of ReadReq miss cycles
system.cpu.dcache.ReadReq_accesses::.cpu.data        35339                       # number of ReadReq accesses(hits+misses)
system.cpu.dcache.ReadReq_accesses::total        35339                       # number of ReadReq accesses(hits+misses)
system.cpu.dcache.ReadReq_miss_rate::.cpu.data     0.003452                       # miss rate for ReadReq accesses
system.cpu.dcache.ReadReq_miss_rate::total     0.003452                       # miss rate for ReadReq accesses
system.cpu.dcache.ReadReq_avg_miss_latency::.cpu.data 77463.114754                       # average ReadReq miss latency
system.cpu.dcache.ReadReq_avg_miss_latency::total 77463.114754                       # average ReadReq miss latency
system.cpu.dcache.ReadReq_mshr_hits::.cpu.data            7                       # number of ReadReq MSHR hits
system.cpu.dcache.ReadReq_mshr_hits::total            7                       # number of ReadReq MSHR hits
system.cpu.dcache.ReadReq_mshr_misses::.cpu.data          115                       # number of ReadReq MSHR misses
system.cpu.dcache.ReadReq_mshr_misses::total          115                       # number of ReadReq MSHR misses
system.cpu.dcache.ReadReq_mshr_miss_latency::.cpu.data      8774500                       # number of ReadReq MSHR miss cycles
system.cpu.dcache.ReadReq_mshr_miss_latency::total      8774500                       # number of ReadReq MSHR miss cycles
system.cpu.dcache.ReadReq_mshr_miss_rate::.cpu.data     0.003254                       # mshr miss rate for ReadReq accesses
system.cpu.dcache.ReadReq_mshr_miss_rate::total     0.003254                       # mshr miss rate for ReadReq accesses
system.cpu.dcache.ReadReq_avg_mshr_miss_latency::.cpu.data        76300                       # average ReadReq mshr miss latency
system.cpu.dcache.ReadReq_avg_mshr_miss_latency::total        76300                       # average ReadReq mshr miss latency
system.cpu.dcache.WriteReq_hits::.cpu.data         6088                       # number of WriteReq hits
system.cpu.dcache.WriteReq_hits::total           6088                       # number of WriteReq hits
system.cpu.dcache.WriteReq_misses::.cpu.data         5032                       # number of WriteReq misses
system.cpu.dcache.WriteReq_misses::total         5032                       # number of WriteReq misses
system.cpu.dcache.WriteReq_miss_latency::.cpu.data    423800000                       # number of WriteReq miss cycles
system.cpu.dcache.WriteReq_miss_latency::total    423800000                       # number of WriteReq miss cycles
system.cpu.dcache.WriteReq_accesses::.cpu.data        11120                       # number of WriteReq accesses(hits+misses)
system.cpu.dcache.WriteReq_accesses::total        11120                       # number of WriteReq accesses(hits+misses)
system.cpu.dcache.WriteReq_miss_rate::.cpu.data     0.452518                       # miss rate for WriteReq accesses
system.cpu.dcache.WriteReq_miss_rate::total     0.452518                       # miss rate for WriteReq accesses
system.cpu.dcache.WriteReq_avg_miss_latency::.cpu.data 84220.985692                       # average WriteReq miss latency
system.cpu.dcache.WriteReq_avg_miss_latency::total 84220.985692                       # average WriteReq miss latency
system.cpu.dcache.WriteReq_mshr_hits::.cpu.data           85                       # number of WriteReq MSHR hits
system.cpu.dcache.WriteReq_mshr_hits::total           85                       # number of WriteReq MSHR hits
system.cpu.dcache.WriteReq_mshr_misses::.cpu.data         4947                       # number of WriteReq MSHR misses
system.cpu.dcache.WriteReq_mshr_misses::total         4947                       # number of WriteReq MSHR misses
system.cpu.dcache.WriteReq_mshr_miss_latency::.cpu.data    412929500                       # number of WriteReq MSHR miss cycles
system.cpu.dcache.WriteReq_mshr_miss_latency::total    412929500                       # number of WriteReq MSHR miss cycles
system.cpu.dcache.WriteReq_mshr_miss_rate::.cpu.data     0.444874                       # mshr miss rate for WriteReq accesses
system.cpu.dcache.WriteReq_mshr_miss_rate::total     0.444874                       # mshr miss rate for WriteReq accesses
system.cpu.dcache.WriteReq_avg_mshr_miss_latency::.cpu.data 83470.689307                       # average WriteReq mshr miss latency
system.cpu.dcache.WriteReq_avg_mshr_miss_latency::total 83470.689307                       # average WriteReq mshr miss latency
system.cpu.dcache.SoftPFReq_hits::.cpu.data           16                       # number of SoftPFReq hits
system.cpu.dcache.SoftPFReq_hits::total            16                       # number of SoftPFReq hits
system.cpu.dcache.SoftPFReq_misses::.cpu.data           17                       # number of SoftPFReq misses
system.cpu.dcache.SoftPFReq_misses::total           17                       # number of SoftPFReq misses
system.cpu.dcache.SoftPFReq_accesses::.cpu.data           33                       # number of SoftPFReq accesses(hits+misses)
system.cpu.dcache.SoftPFReq_accesses::total           33                       # number of SoftPFReq accesses(hits+misses)
system.cpu.dcache.SoftPFReq_miss_rate::.cpu.data     0.515152                       # miss rate for SoftPFReq accesses
system.cpu.dcache.SoftPFReq_miss_rate::total     0.515152                       # miss rate for SoftPFReq accesses
system.cpu.dcache.SoftPFReq_mshr_misses::.cpu.data           17                       # number of SoftPFReq MSHR misses
system.cpu.dcache.SoftPFReq_mshr_misses::total           17                       # number of SoftPFReq MSHR misses
system.cpu.dcache.SoftPFReq_mshr_miss_latency::.cpu.data      1409500                       # number of SoftPFReq MSHR miss cycles
system.cpu.dcache.SoftPFReq_mshr_miss_latency::total      1409500                       # number of SoftPFReq MSHR miss cycles
system.cpu.dcache.SoftPFReq_mshr_miss_rate::.cpu.data     0.515152                       # mshr miss rate for SoftPFReq accesses
system.cpu.dcache.SoftPFReq_mshr_miss_rate::total     0.515152                       # mshr miss rate for SoftPFReq accesses
system.cpu.dcache.SoftPFReq_avg_mshr_miss_latency::.cpu.data 82911.764706                       # average SoftPFReq mshr miss latency
system.cpu.dcache.SoftPFReq_avg_mshr_miss_latency::total 82911.764706                       # average SoftPFReq mshr miss latency
system.cpu.dcache.LoadLockedReq_hits::.cpu.data            9                       # number of LoadLockedReq hits
system.cpu.dcache.LoadLockedReq_hits::total            9                       # number of LoadLockedReq hits
system.cpu.dcache.LoadLockedReq_misses::.cpu.data            1                       # number of LoadLockedReq misses
system.cpu.dcache.LoadLockedReq_misses::total            1                       # number of LoadLockedReq misses
system.cpu.dcache.LoadLockedReq_miss_latency::.cpu.data        72500                       # number of LoadLockedReq miss cycles
system.cpu.dcache.LoadLockedReq_miss_latency::total        72500                       # number of LoadLockedReq miss cycles
system.cpu.dcache.LoadLockedReq_accesses::.cpu.data           10                       # number of LoadLockedReq accesses(hits+misses)
system.cpu.dcache.LoadLockedReq_accesses::total           10                       # number of LoadLockedReq accesses(hits+misses)
system.cpu.dcache.LoadLockedReq_miss_rate::.cpu.data     0.100000                       # miss rate for LoadLockedReq accesses
system.cpu.dcache.LoadLockedReq_miss_rate::total     0.100000                       # miss rate for LoadLockedReq accesses
system.cpu.dcache.LoadLockedReq_avg_miss_latency::.cpu.data        72500                       # average LoadLockedReq miss latency
system.cpu.dcache.LoadLockedReq_avg_miss_latency::total        72500                       # average LoadLockedReq miss latency
system.cpu.dcache.LoadLockedReq_mshr_misses::.cpu.data            1                       # number of LoadLockedReq MSHR misses
system.cpu.dcache.LoadLockedReq_mshr_misses::total            1                       # number of LoadLockedReq MSHR misses
system.cpu.dcache.LoadLockedReq_mshr_miss_latency::.cpu.data        71500                       # number of LoadLockedReq MSHR miss cycles
system.cpu.dcache.LoadLockedReq_mshr_miss_latency::total        71500                       # number of LoadLockedReq MSHR miss cycles
system.cpu.dcache.LoadLockedReq_mshr_miss_rate::.cpu.data     0.100000                       # mshr miss rate for LoadLockedReq accesses
system.cpu.dcache.LoadLockedReq_mshr_miss_rate::total     0.100000                       # mshr miss rate for LoadLockedReq accesses
system.cpu.dcache.LoadLockedReq_avg_mshr_miss_latency::.cpu.data        71500                       # average LoadLockedReq mshr miss latency
system.cpu.dcache.LoadLockedReq_avg_mshr_miss_latency::total        71500                       # average LoadLockedReq mshr miss latency
system.cpu.dcache.StoreCondReq_hits::.cpu.data           10                       # number of StoreCondReq hits
system.cpu.dcache.StoreCondReq_hits::total           10                       # number of StoreCondReq hits
system.cpu.dcache.StoreCondReq_accesses::.cpu.data           10                       # number of StoreCondReq accesses(hits+misses)
system.cpu.dcache.StoreCondReq_accesses::total           10                       # number of StoreCondReq accesses(hits+misses)
system.cpu.dcache.tags.pwrStateResidencyTicks::UNDEFINED    289475000                       # Cumulative time (in ticks) in various power states
system.cpu.dcache.tags.tagsinuse           327.114362                       # Cycle average of tags in use
system.cpu.dcache.tags.total_refs               46419                       # Total number of references to valid blocks.
system.cpu.dcache.tags.sampled_refs              5079                       # Sample count of references to valid blocks.
system.cpu.dcache.tags.avg_refs              9.139398                       # Average number of references to valid blocks.
system.cpu.dcache.tags.warmup_cycle            176500                       # Cycle when the warmup percentage was hit.
system.cpu.dcache.tags.occ_blocks::.cpu.data   327.114362                       # Average occupied blocks per requestor
system.cpu.dcache.tags.occ_percent::.cpu.data     0.079862                       # Average percentage of cache occupancy
system.cpu.dcache.tags.occ_percent::total     0.079862                       # Average percentage of cache occupancy
system.cpu.dcache.tags.occ_task_id_blocks::1024          370                       # Occupied blocks per task id
system.cpu.dcache.tags.age_task_id_blocks_1024::0          128                       # Occupied blocks per task id
system.cpu.dcache.tags.age_task_id_blocks_1024::2          242                       # Occupied blocks per task id
system.cpu.dcache.tags.occ_task_id_percent::1024     0.090332                       # Percentage of cache occupancy per task id
system.cpu.dcache.tags.tag_accesses            191127                       # Number of tag accesses
system.cpu.dcache.tags.data_accesses           191127                       # Number of data accesses
system.cpu.itb.walker.pwrStateResidencyTicks::UNDEFINED    289475000                       # Cumulative time (in ticks) in various power states
system.cpu.itb.stage2_mmu.stage2_tlb.walker.pwrStateResidencyTicks::UNDEFINED    289475000                       # Cumulative time (in ticks) in various power states

---------- End Simulation Statistics   ----------
