
---------- Begin Simulation Statistics ----------
final_tick                                13567587500                       # Number of ticks from beginning of simulation (restored from checkpoints and never reset)
host_inst_rate                                  72887                       # Simulator instruction rate (inst/s)
host_mem_usage                                 696284                       # Number of bytes of host memory used
host_op_rate                                    73093                       # Simulator op (including micro ops) rate (op/s)
host_seconds                                   137.20                       # Real time elapsed on the host
host_tick_rate                               98889568                       # Simulator tick rate (ticks/s)
sim_freq                                 1000000000000                       # Frequency of simulated ticks
sim_insts                                    10000000                       # Number of instructions simulated
sim_ops                                      10028308                       # Number of ops (including micro ops) simulated
sim_seconds                                  0.013568                       # Number of seconds simulated
sim_ticks                                 13567587500                       # Number of ticks simulated
system.cpu.branchPred.BTBCorrect                    0                       # Number of correct BTB predictions (this stat may not work properly.
system.cpu.branchPred.BTBHitPct             98.809841                       # BTB Hit Percentage
system.cpu.branchPred.BTBHits                  300292                       # Number of BTB hits
system.cpu.branchPred.BTBLookups               303909                       # Number of BTB lookups
system.cpu.branchPred.RASInCorrect                  5                       # Number of incorrect RAS predictions.
system.cpu.branchPred.condIncorrect              7161                       # Number of conditional branches incorrect
system.cpu.branchPred.condPredicted            603832                       # Number of conditional branches predicted
system.cpu.branchPred.indirectHits                127                       # Number of indirect target hits.
system.cpu.branchPred.indirectLookups             398                       # Number of indirect predictor lookups.
system.cpu.branchPred.indirectMisses              271                       # Number of indirect misses.
system.cpu.branchPred.lookups                  716759                       # Number of BP lookups
system.cpu.branchPred.usedRAS                    6943                       # Number of times the RAS was used to get a target.
system.cpu.branchPredindirectMispredicted          171                       # Number of mispredicted indirect branches.
system.cpu.committedInsts                    10000000                       # Number of instructions committed
system.cpu.committedOps                      10028308                       # Number of ops (including micro ops) committed
system.cpu.cpi                               2.713518                       # CPI: cycles per instruction
system.cpu.discardedOps                         15344                       # Number of ops (including micro ops) which were discarded before commit
system.cpu.dtb.accesses                             0                       # DTB accesses
system.cpu.dtb.align_faults                         0                       # Number of TLB faults due to alignment restrictions
system.cpu.dtb.domain_faults                        0                       # Number of TLB faults due to domain restrictions
system.cpu.dtb.flush_entries                        0                       # Number of entries that have been flushed from TLB
system.cpu.dtb.flush_tlb                            0                       # Number of times complete TLB was flushed
system.cpu.dtb.flush_tlb_asid                       0                       # Number of times TLB was flushed by ASID
system.cpu.dtb.flush_tlb_mva                        0                       # Number of times TLB was flushed by MVA
system.cpu.dtb.flush_tlb_mva_asid                   0                       # Number of times TLB was flushed by MVA & ASID
system.cpu.dtb.hits                                 0                       # DTB hits
system.cpu.dtb.inst_accesses                        0                       # ITB inst accesses
system.cpu.dtb.inst_hits                            0                       # ITB inst hits
system.cpu.dtb.inst_misses                          0                       # ITB inst misses
system.cpu.dtb.misses                               0                       # DTB misses
system.cpu.dtb.perms_faults                         0                       # Number of TLB faults due to permissions restrictions
system.cpu.dtb.prefetch_faults                      0                       # Number of TLB faults due to prefetch
system.cpu.dtb.read_accesses                        0                       # DTB read accesses
system.cpu.dtb.read_hits                            0                       # DTB read hits
system.cpu.dtb.read_misses                          0                       # DTB read misses
system.cpu.dtb.stage2_mmu.stage2_tlb.accesses            0                       # DTB accesses
system.cpu.dtb.stage2_mmu.stage2_tlb.align_faults            0                       # Number of TLB faults due to alignment restrictions
system.cpu.dtb.stage2_mmu.stage2_tlb.domain_faults            0                       # Number of TLB faults due to domain restrictions
system.cpu.dtb.stage2_mmu.stage2_tlb.flush_entries            0                       # Number of entries that have been flushed from TLB
system.cpu.dtb.stage2_mmu.stage2_tlb.flush_tlb            0                       # Number of times complete TLB was flushed
system.cpu.dtb.stage2_mmu.stage2_tlb.flush_tlb_asid            0                       # Number of times TLB was flushed by ASID
system.cpu.dtb.stage2_mmu.stage2_tlb.flush_tlb_mva            0                       # Number of times TLB was flushed by MVA
system.cpu.dtb.stage2_mmu.stage2_tlb.flush_tlb_mva_asid            0                       # Number of times TLB was flushed by MVA & ASID
system.cpu.dtb.stage2_mmu.stage2_tlb.hits            0                       # DTB hits
system.cpu.dtb.stage2_mmu.stage2_tlb.inst_accesses            0                       # ITB inst accesses
system.cpu.dtb.stage2_mmu.stage2_tlb.inst_hits            0                       # ITB inst hits
system.cpu.dtb.stage2_mmu.stage2_tlb.inst_misses            0                       # ITB inst misses
system.cpu.dtb.stage2_mmu.stage2_tlb.misses            0                       # DTB misses
system.cpu.dtb.stage2_mmu.stage2_tlb.perms_faults            0                       # Number of TLB faults due to permissions restrictions
system.cpu.dtb.stage2_mmu.stage2_tlb.prefetch_faults            0                       # Number of TLB faults due to prefetch
system.cpu.dtb.stage2_mmu.stage2_tlb.read_accesses            0                       # DTB read accesses
system.cpu.dtb.stage2_mmu.stage2_tlb.read_hits            0                       # DTB read hits
system.cpu.dtb.stage2_mmu.stage2_tlb.read_misses            0                       # DTB read misses
system.cpu.dtb.stage2_mmu.stage2_tlb.walker.walkRequestOrigin_Requested::Data            0                       # Table walker requests started/completed, data/inst
system.cpu.dtb.stage2_mmu.stage2_tlb.walker.walkRequestOrigin_Requested::Inst            0                       # Table walker requests started/completed, data/inst
system.cpu.dtb.stage2_mmu.stage2_tlb.walker.walkRequestOrigin_Requested::total            0                       # Table walker requests started/completed, data/inst
system.cpu.dtb.stage2_mmu.stage2_tlb.walker.walkRequestOrigin_Completed::Data            0                       # Table walker requests started/completed, data/inst
system.cpu.dtb.stage2_mmu.stage2_tlb.walker.walkRequestOrigin_Completed::Inst            0                       # Table walker requests started/completed, data/inst
system.cpu.dtb.stage2_mmu.stage2_tlb.walker.walkRequestOrigin_Completed::total            0                       # Table walker requests started/completed, data/inst
system.cpu.dtb.stage2_mmu.stage2_tlb.walker.walkRequestOrigin::total            0                       # Table walker requests started/completed, data/inst
system.cpu.dtb.stage2_mmu.stage2_tlb.walker.walks            0                       # Table walker walks requested
system.cpu.dtb.stage2_mmu.stage2_tlb.write_accesses            0                       # DTB write accesses
system.cpu.dtb.stage2_mmu.stage2_tlb.write_hits            0                       # DTB write hits
system.cpu.dtb.stage2_mmu.stage2_tlb.write_misses            0                       # DTB write misses
system.cpu.dtb.walker.walkRequestOrigin_Requested::Data            0                       # Table walker requests started/completed, data/inst
system.cpu.dtb.walker.walkRequestOrigin_Requested::Inst            0                       # Table walker requests started/completed, data/inst
system.cpu.dtb.walker.walkRequestOrigin_Requested::total            0                       # Table walker requests started/completed, data/inst
system.cpu.dtb.walker.walkRequestOrigin_Completed::Data            0                       # Table walker requests started/completed, data/inst
system.cpu.dtb.walker.walkRequestOrigin_Completed::Inst            0                       # Table walker requests started/completed, data/inst
system.cpu.dtb.walker.walkRequestOrigin_Completed::total            0                       # Table walker requests started/completed, data/inst
system.cpu.dtb.walker.walkRequestOrigin::total            0                       # Table walker requests started/completed, data/inst
system.cpu.dtb.walker.walks                         0                       # Table walker walks requested
system.cpu.dtb.write_accesses                       0                       # DTB write accesses
system.cpu.dtb.write_hits                           0                       # DTB write hits
system.cpu.dtb.write_misses                         0                       # DTB write misses
system.cpu.fetch2.amo_instructions                  0                       # Number of memory atomic instructions successfully decoded
system.cpu.fetch2.fp_instructions                   0                       # Number of floating point instructions successfully decoded
system.cpu.fetch2.int_instructions            2169250                       # Number of integer instructions successfully decoded
system.cpu.fetch2.load_instructions           5801029                       # Number of memory load instructions successfully decoded
system.cpu.fetch2.store_instructions          1454388                       # Number of memory store instructions successfully decoded
system.cpu.fetch2.vec_instructions                  0                       # Number of SIMD instructions successfully decoded
system.cpu.idleCycles                        12629455                       # Total number of cycles that the object has spent stopped
system.cpu.ipc                               0.368525                       # IPC: instructions per cycle
system.cpu.itb.accesses                             0                       # DTB accesses
system.cpu.itb.align_faults                         0                       # Number of TLB faults due to alignment restrictions
system.cpu.itb.domain_faults                        0                       # Number of TLB faults due to domain restrictions
system.cpu.itb.flush_entries                        0                       # Number of entries that have been flushed from TLB
system.cpu.itb.flush_tlb                            0                       # Number of times complete TLB was flushed
system.cpu.itb.flush_tlb_asid                       0                       # Number of times TLB was flushed by ASID
system.cpu.itb.flush_tlb_mva                        0                       # Number of times TLB was flushed by MVA
system.cpu.itb.flush_tlb_mva_asid                   0                       # Number of times TLB was flushed by MVA & ASID
system.cpu.itb.hits                                 0                       # DTB hits
system.cpu.itb.inst_accesses                        0                       # ITB inst accesses
system.cpu.itb.inst_hits                            0                       # ITB inst hits
system.cpu.itb.inst_misses                          0                       # ITB inst misses
system.cpu.itb.misses                               0                       # DTB misses
system.cpu.itb.perms_faults                         0                       # Number of TLB faults due to permissions restrictions
system.cpu.itb.prefetch_faults                      0                       # Number of TLB faults due to prefetch
system.cpu.itb.read_accesses                        0                       # DTB read accesses
system.cpu.itb.read_hits                            0                       # DTB read hits
system.cpu.itb.read_misses                          0                       # DTB read misses
system.cpu.itb.stage2_mmu.stage2_tlb.accesses            0                       # DTB accesses
system.cpu.itb.stage2_mmu.stage2_tlb.align_faults            0                       # Number of TLB faults due to alignment restrictions
system.cpu.itb.stage2_mmu.stage2_tlb.domain_faults            0                       # Number of TLB faults due to domain restrictions
system.cpu.itb.stage2_mmu.stage2_tlb.flush_entries            0                       # Number of entries that have been flushed from TLB
system.cpu.itb.stage2_mmu.stage2_tlb.flush_tlb            0                       # Number of times complete TLB was flushed
system.cpu.itb.stage2_mmu.stage2_tlb.flush_tlb_asid            0                       # Number of times TLB was flushed by ASID
system.cpu.itb.stage2_mmu.stage2_tlb.flush_tlb_mva            0                       # Number of times TLB was flushed by MVA
system.cpu.itb.stage2_mmu.stage2_tlb.flush_tlb_mva_asid            0                       # Number of times TLB was flushed by MVA & ASID
system.cpu.itb.stage2_mmu.stage2_tlb.hits            0                       # DTB hits
system.cpu.itb.stage2_mmu.stage2_tlb.inst_accesses            0                       # ITB inst accesses
system.cpu.itb.stage2_mmu.stage2_tlb.inst_hits            0                       # ITB inst hits
system.cpu.itb.stage2_mmu.stage2_tlb.inst_misses            0                       # ITB inst misses
system.cpu.itb.stage2_mmu.stage2_tlb.misses            0                       # DTB misses
system.cpu.itb.stage2_mmu.stage2_tlb.perms_faults            0                       # Number of TLB faults due to permissions restrictions
system.cpu.itb.stage2_mmu.stage2_tlb.prefetch_faults            0                       # Number of TLB faults due to prefetch
system.cpu.itb.stage2_mmu.stage2_tlb.read_accesses            0                       # DTB read accesses
system.cpu.itb.stage2_mmu.stage2_tlb.read_hits            0                       # DTB read hits
system.cpu.itb.stage2_mmu.stage2_tlb.read_misses            0                       # DTB read misses
system.cpu.itb.stage2_mmu.stage2_tlb.walker.walkRequestOrigin_Requested::Data            0                       # Table walker requests started/completed, data/inst
system.cpu.itb.stage2_mmu.stage2_tlb.walker.walkRequestOrigin_Requested::Inst            0                       # Table walker requests started/completed, data/inst
system.cpu.itb.stage2_mmu.stage2_tlb.walker.walkRequestOrigin_Requested::total            0                       # Table walker requests started/completed, data/inst
system.cpu.itb.stage2_mmu.stage2_tlb.walker.walkRequestOrigin_Completed::Data            0                       # Table walker requests started/completed, data/inst
system.cpu.itb.stage2_mmu.stage2_tlb.walker.walkRequestOrigin_Completed::Inst            0                       # Table walker requests started/completed, data/inst
system.cpu.itb.stage2_mmu.stage2_tlb.walker.walkRequestOrigin_Completed::total            0                       # Table walker requests started/completed, data/inst
system.cpu.itb.stage2_mmu.stage2_tlb.walker.walkRequestOrigin::total            0                       # Table walker requests started/completed, data/inst
system.cpu.itb.stage2_mmu.stage2_tlb.walker.walks            0                       # Table walker walks requested
system.cpu.itb.stage2_mmu.stage2_tlb.write_accesses            0                       # DTB write accesses
system.cpu.itb.stage2_mmu.stage2_tlb.write_hits            0                       # DTB write hits
system.cpu.itb.stage2_mmu.stage2_tlb.write_misses            0                       # DTB write misses
system.cpu.itb.walker.walkRequestOrigin_Requested::Data            0                       # Table walker requests started/completed, data/inst
system.cpu.itb.walker.walkRequestOrigin_Requested::Inst            0                       # Table walker requests started/completed, data/inst
system.cpu.itb.walker.walkRequestOrigin_Requested::total            0                       # Table walker requests started/completed, data/inst
system.cpu.itb.walker.walkRequestOrigin_Completed::Data            0                       # Table walker requests started/completed, data/inst
system.cpu.itb.walker.walkRequestOrigin_Completed::Inst            0                       # Table walker requests started/completed, data/inst
system.cpu.itb.walker.walkRequestOrigin_Completed::total            0                       # Table walker requests started/completed, data/inst
system.cpu.itb.walker.walkRequestOrigin::total            0                       # Table walker requests started/completed, data/inst
system.cpu.itb.walker.walks                         0                       # Table walker walks requested
system.cpu.itb.write_accesses                       0                       # DTB write accesses
system.cpu.itb.write_hits                           0                       # DTB write hits
system.cpu.itb.write_misses                         0                       # DTB write misses
system.cpu.numCycles                         27135175                       # number of cpu cycles simulated
system.cpu.numFetchSuspends                         0                       # Number of times Execute suspended instruction fetching
system.cpu.numWorkItemsCompleted                    0                       # number of work items this cpu completed
system.cpu.numWorkItemsStarted                      0                       # number of work items this cpu started
system.cpu.op_class_0::No_OpClass                   0      0.00%      0.00% # Class of committed instruction
system.cpu.op_class_0::IntAlu                 2830128     28.22%     28.22% # Class of committed instruction
system.cpu.op_class_0::IntMult                  20549      0.20%     28.43% # Class of committed instruction
system.cpu.op_class_0::IntDiv                       0      0.00%     28.43% # Class of committed instruction
system.cpu.op_class_0::FloatAdd                     0      0.00%     28.43% # Class of committed instruction
system.cpu.op_class_0::FloatCmp                     0      0.00%     28.43% # Class of committed instruction
system.cpu.op_class_0::FloatCvt                     0      0.00%     28.43% # Class of committed instruction
system.cpu.op_class_0::FloatMult                    0      0.00%     28.43% # Class of committed instruction
system.cpu.op_class_0::FloatMultAcc                 0      0.00%     28.43% # Class of committed instruction
system.cpu.op_class_0::FloatDiv                     0      0.00%     28.43% # Class of committed instruction
system.cpu.op_class_0::FloatMisc                    0      0.00%     28.43% # Class of committed instruction
system.cpu.op_class_0::FloatSqrt                    0      0.00%     28.43% # Class of committed instruction
system.cpu.op_class_0::SimdAdd                      0      0.00%     28.43% # Class of committed instruction
system.cpu.op_class_0::SimdAddAcc                   0      0.00%     28.43% # Class of committed instruction
system.cpu.op_class_0::SimdAlu                      0      0.00%     28.43% # Class of committed instruction
system.cpu.op_class_0::SimdCmp                      0      0.00%     28.43% # Class of committed instruction
system.cpu.op_class_0::SimdCvt                      0      0.00%     28.43% # Class of committed instruction
system.cpu.op_class_0::SimdMisc                     0      0.00%     28.43% # Class of committed instruction
system.cpu.op_class_0::SimdMult                     0      0.00%     28.43% # Class of committed instruction
system.cpu.op_class_0::SimdMultAcc                  0      0.00%     28.43% # Class of committed instruction
system.cpu.op_class_0::SimdShift                    0      0.00%     28.43% # Class of committed instruction
system.cpu.op_class_0::SimdShiftAcc                 0      0.00%     28.43% # Class of committed instruction
system.cpu.op_class_0::SimdDiv                      0      0.00%     28.43% # Class of committed instruction
system.cpu.op_class_0::SimdSqrt                     0      0.00%     28.43% # Class of committed instruction
system.cpu.op_class_0::SimdFloatAdd                 0      0.00%     28.43% # Class of committed instruction
system.cpu.op_class_0::SimdFloatAlu                 0      0.00%     28.43% # Class of committed instruction
system.cpu.op_class_0::SimdFloatCmp                 0      0.00%     28.43% # Class of committed instruction
system.cpu.op_class_0::SimdFloatCvt                 0      0.00%     28.43% # Class of committed instruction
system.cpu.op_class_0::SimdFloatDiv                 0      0.00%     28.43% # Class of committed instruction
system.cpu.op_class_0::SimdFloatMisc               18      0.00%     28.43% # Class of committed instruction
system.cpu.op_class_0::SimdFloatMult                0      0.00%     28.43% # Class of committed instruction
system.cpu.op_class_0::SimdFloatMultAcc             0      0.00%     28.43% # Class of committed instruction
system.cpu.op_class_0::SimdFloatSqrt                0      0.00%     28.43% # Class of committed instruction
system.cpu.op_class_0::SimdReduceAdd                0      0.00%     28.43% # Class of committed instruction
system.cpu.op_class_0::SimdReduceAlu                0      0.00%     28.43% # Class of committed instruction
system.cpu.op_class_0::SimdReduceCmp                0      0.00%     28.43% # Class of committed instruction
system.cpu.op_class_0::SimdFloatReduceAdd            0      0.00%     28.43% # Class of committed instruction
system.cpu.op_class_0::SimdFloatReduceCmp            0      0.00%     28.43% # Class of committed instruction
system.cpu.op_class_0::SimdAes                      0      0.00%     28.43% # Class of committed instruction
system.cpu.op_class_0::SimdAesMix                   0      0.00%     28.43% # Class of committed instruction
system.cpu.op_class_0::SimdSha1Hash                 0      0.00%     28.43% # Class of committed instruction
system.cpu.op_class_0::SimdSha1Hash2                0      0.00%     28.43% # Class of committed instruction
system.cpu.op_class_0::SimdSha256Hash               0      0.00%     28.43% # Class of committed instruction
system.cpu.op_class_0::SimdSha256Hash2              0      0.00%     28.43% # Class of committed instruction
system.cpu.op_class_0::SimdShaSigma2                0      0.00%     28.43% # Class of committed instruction
system.cpu.op_class_0::SimdShaSigma3                0      0.00%     28.43% # Class of committed instruction
system.cpu.op_class_0::SimdPredAlu                  0      0.00%     28.43% # Class of committed instruction
system.cpu.op_class_0::MemRead                5721911     57.06%     85.48% # Class of committed instruction
system.cpu.op_class_0::MemWrite               1455702     14.52%    100.00% # Class of committed instruction
system.cpu.op_class_0::FloatMemRead                 0      0.00%    100.00% # Class of committed instruction
system.cpu.op_class_0::FloatMemWrite                0      0.00%    100.00% # Class of committed instruction
system.cpu.op_class_0::IprAccess                    0      0.00%    100.00% # Class of committed instruction
system.cpu.op_class_0::InstPrefetch                 0      0.00%    100.00% # Class of committed instruction
system.cpu.op_class_0::total                 10028308                       # Class of committed instruction
system.cpu.tickCycles                        14505720                       # Number of cycles that the object actually ticked
system.cpu.workload.numSyscalls                    84                       # Number of system calls
system.membus.snoop_filter.hit_multi_requests            0                       # Number of requests hitting in the snoop filter with multiple (>1) holders of the requested data.
system.membus.snoop_filter.hit_multi_snoops            0                       # Number of snoops hitting in the snoop filter with multiple (>1) holders of the requested data.
system.membus.snoop_filter.hit_single_requests       111699                       # Number of requests hitting in the snoop filter with a single holder of the requested data.
system.membus.snoop_filter.hit_single_snoops            0                       # Number of snoops hitting in the snoop filter with a single holder of the requested data.
system.membus.snoop_filter.tot_requests        231984                       # Total number of requests made to the snoop filter.
system.membus.snoop_filter.tot_snoops               0                       # Total number of snoops made to the snoop filter.
system.tol2bus.snoop_filter.hit_multi_requests           46                       # Number of requests hitting in the snoop filter with multiple (>1) holders of the requested data.
system.tol2bus.snoop_filter.hit_multi_snoops            9                       # Number of snoops hitting in the snoop filter with multiple (>1) holders of the requested data.
system.tol2bus.snoop_filter.hit_single_requests       119614                       # Number of requests hitting in the snoop filter with a single holder of the requested data.
system.tol2bus.snoop_filter.hit_single_snoops          528                       # Number of snoops hitting in the snoop filter with a single holder of the requested data.
system.tol2bus.snoop_filter.tot_requests       240133                       # Total number of requests made to the snoop filter.
system.tol2bus.snoop_filter.tot_snoops            537                       # Total number of snoops made to the snoop filter.
system.membus.pwrStateResidencyTicks::UNDEFINED  13567587500                       # Cumulative time (in ticks) in various power states
system.membus.trans_dist::ReadResp              50056                       # Transaction distribution
system.membus.trans_dist::WritebackDirty        67394                       # Transaction distribution
system.membus.trans_dist::CleanEvict            44296                       # Transaction distribution
system.membus.trans_dist::ReadExReq             70238                       # Transaction distribution
system.membus.trans_dist::ReadExResp            70238                       # Transaction distribution
system.membus.trans_dist::ReadSharedReq         50056                       # Transaction distribution
system.membus.pkt_count_system.l2.mem_side::system.mem_ctrls.port       352278                       # Packet count per connected master and slave (bytes)
system.membus.pkt_count::total                 352278                       # Packet count per connected master and slave (bytes)
system.membus.pkt_size_system.l2.mem_side::system.mem_ctrls.port     12012032                       # Cumulative packet size per connected master and slave (bytes)
system.membus.pkt_size::total                12012032                       # Cumulative packet size per connected master and slave (bytes)
system.membus.snoops                                0                       # Total snoops (count)
system.membus.snoopTraffic                          0                       # Total snoop traffic (bytes)
system.membus.snoop_fanout::samples            120294                       # Request fanout histogram
system.membus.snoop_fanout::mean                    0                       # Request fanout histogram
system.membus.snoop_fanout::stdev                   0                       # Request fanout histogram
system.membus.snoop_fanout::underflows              0      0.00%      0.00% # Request fanout histogram
system.membus.snoop_fanout::0                  120294    100.00%    100.00% # Request fanout histogram
system.membus.snoop_fanout::1                       0      0.00%    100.00% # Request fanout histogram
system.membus.snoop_fanout::overflows               0      0.00%    100.00% # Request fanout histogram
system.membus.snoop_fanout::min_value               0                       # Request fanout histogram
system.membus.snoop_fanout::max_value               0                       # Request fanout histogram
system.membus.snoop_fanout::total              120294                       # Request fanout histogram
system.membus.respLayer1.occupancy          642471750                       # Layer occupancy (ticks)
system.membus.respLayer1.utilization              4.7                       # Layer utilization (%)
system.membus.reqLayer0.occupancy           520249500                       # Layer occupancy (ticks)
system.membus.reqLayer0.utilization               3.8                       # Layer utilization (%)
system.tol2bus.pwrStateResidencyTicks::UNDEFINED  13567587500                       # Cumulative time (in ticks) in various power states
system.tol2bus.trans_dist::ReadResp             50281                       # Transaction distribution
system.tol2bus.trans_dist::WritebackDirty       137404                       # Transaction distribution
system.tol2bus.trans_dist::WritebackClean          208                       # Transaction distribution
system.tol2bus.trans_dist::CleanEvict           94158                       # Transaction distribution
system.tol2bus.trans_dist::ReadExReq            70246                       # Transaction distribution
system.tol2bus.trans_dist::ReadExResp           70246                       # Transaction distribution
system.tol2bus.trans_dist::ReadCleanReq           617                       # Transaction distribution
system.tol2bus.trans_dist::ReadSharedReq        49664                       # Transaction distribution
system.tol2bus.pkt_count_system.cpu.icache.mem_side::system.l2.cpu_side         1442                       # Packet count per connected master and slave (bytes)
system.tol2bus.pkt_count_system.cpu.dcache.mem_side::system.l2.cpu_side       359218                       # Packet count per connected master and slave (bytes)
system.tol2bus.pkt_count::total                360660                       # Packet count per connected master and slave (bytes)
system.tol2bus.pkt_size_system.cpu.icache.mem_side::system.l2.cpu_side        52800                       # Cumulative packet size per connected master and slave (bytes)
system.tol2bus.pkt_size_system.cpu.dcache.mem_side::system.l2.cpu_side     12154880                       # Cumulative packet size per connected master and slave (bytes)
system.tol2bus.pkt_size::total               12207680                       # Cumulative packet size per connected master and slave (bytes)
system.tol2bus.snoops                          112164                       # Total snoops (count)
system.tol2bus.snoopTraffic                   4313216                       # Total snoop traffic (bytes)
system.tol2bus.snoop_fanout::samples           232691                       # Request fanout histogram
system.tol2bus.snoop_fanout::mean            0.002579                       # Request fanout histogram
system.tol2bus.snoop_fanout::stdev           0.051471                       # Request fanout histogram
system.tol2bus.snoop_fanout::underflows             0      0.00%      0.00% # Request fanout histogram
system.tol2bus.snoop_fanout::0                 232100     99.75%     99.75% # Request fanout histogram
system.tol2bus.snoop_fanout::1                    582      0.25%    100.00% # Request fanout histogram
system.tol2bus.snoop_fanout::2                      9      0.00%    100.00% # Request fanout histogram
system.tol2bus.snoop_fanout::overflows              0      0.00%    100.00% # Request fanout histogram
system.tol2bus.snoop_fanout::min_value              0                       # Request fanout histogram
system.tol2bus.snoop_fanout::max_value              2                       # Request fanout histogram
system.tol2bus.snoop_fanout::total             232691                       # Request fanout histogram
system.tol2bus.reqLayer0.occupancy          190284500                       # Layer occupancy (ticks)
system.tol2bus.reqLayer0.utilization              1.4                       # Layer utilization (%)
system.tol2bus.respLayer1.occupancy         179866497                       # Layer occupancy (ticks)
system.tol2bus.respLayer1.utilization             1.3                       # Layer utilization (%)
system.tol2bus.respLayer0.occupancy            925500                       # Layer occupancy (ticks)
system.tol2bus.respLayer0.utilization             0.0                       # Layer utilization (%)
system.voltage_domain.voltage                       1                       # Voltage in Volts
system.clk_domain.clock                          1000                       # Clock period in ticks
system.l2.pwrStateResidencyTicks::UNDEFINED  13567587500                       # Cumulative time (in ticks) in various power states
system.l2.demand_hits::.cpu.inst                   90                       # number of demand (read+write) hits
system.l2.demand_hits::.cpu.data                  140                       # number of demand (read+write) hits
system.l2.demand_hits::total                      230                       # number of demand (read+write) hits
system.l2.overall_hits::.cpu.inst                  90                       # number of overall hits
system.l2.overall_hits::.cpu.data                 140                       # number of overall hits
system.l2.overall_hits::total                     230                       # number of overall hits
system.l2.demand_misses::.cpu.inst                527                       # number of demand (read+write) misses
system.l2.demand_misses::.cpu.data             119770                       # number of demand (read+write) misses
system.l2.demand_misses::total                 120297                       # number of demand (read+write) misses
system.l2.overall_misses::.cpu.inst               527                       # number of overall misses
system.l2.overall_misses::.cpu.data            119770                       # number of overall misses
system.l2.overall_misses::total                120297                       # number of overall misses
system.l2.demand_miss_latency::.cpu.inst     41681500                       # number of demand (read+write) miss cycles
system.l2.demand_miss_latency::.cpu.data   9845770500                       # number of demand (read+write) miss cycles
system.l2.demand_miss_latency::total       9887452000                       # number of demand (read+write) miss cycles
system.l2.overall_miss_latency::.cpu.inst     41681500                       # number of overall miss cycles
system.l2.overall_miss_latency::.cpu.data   9845770500                       # number of overall miss cycles
system.l2.overall_miss_latency::total      9887452000                       # number of overall miss cycles
system.l2.demand_accesses::.cpu.inst              617                       # number of demand (read+write) accesses
system.l2.demand_accesses::.cpu.data           119910                       # number of demand (read+write) accesses
system.l2.demand_accesses::total               120527                       # number of demand (read+write) accesses
system.l2.overall_accesses::.cpu.inst             617                       # number of overall (read+write) accesses
system.l2.overall_accesses::.cpu.data          119910                       # number of overall (read+write) accesses
system.l2.overall_accesses::total              120527                       # number of overall (read+write) accesses
system.l2.demand_miss_rate::.cpu.inst        0.854133                       # miss rate for demand accesses
system.l2.demand_miss_rate::.cpu.data        0.998832                       # miss rate for demand accesses
system.l2.demand_miss_rate::total            0.998092                       # miss rate for demand accesses
system.l2.overall_miss_rate::.cpu.inst       0.854133                       # miss rate for overall accesses
system.l2.overall_miss_rate::.cpu.data       0.998832                       # miss rate for overall accesses
system.l2.overall_miss_rate::total           0.998092                       # miss rate for overall accesses
system.l2.demand_avg_miss_latency::.cpu.inst 79092.030361                       # average overall miss latency
system.l2.demand_avg_miss_latency::.cpu.data 82205.648326                       # average overall miss latency
system.l2.demand_avg_miss_latency::total 82192.008113                       # average overall miss latency
system.l2.overall_avg_miss_latency::.cpu.inst 79092.030361                       # average overall miss latency
system.l2.overall_avg_miss_latency::.cpu.data 82205.648326                       # average overall miss latency
system.l2.overall_avg_miss_latency::total 82192.008113                       # average overall miss latency
system.l2.blocked_cycles::no_mshrs                  0                       # number of cycles access was blocked
system.l2.blocked_cycles::no_targets                0                       # number of cycles access was blocked
system.l2.blocked::no_mshrs                         0                       # number of cycles access was blocked
system.l2.blocked::no_targets                       0                       # number of cycles access was blocked
system.l2.avg_blocked_cycles::no_mshrs            nan                       # average number of cycles each access was blocked
system.l2.avg_blocked_cycles::no_targets          nan                       # average number of cycles each access was blocked
system.l2.writebacks::.writebacks               67394                       # number of writebacks
system.l2.writebacks::total                     67394                       # number of writebacks
system.l2.demand_mshr_hits::.cpu.data               3                       # number of demand (read+write) MSHR hits
system.l2.demand_mshr_hits::total                   3                       # number of demand (read+write) MSHR hits
system.l2.overall_mshr_hits::.cpu.data              3                       # number of overall MSHR hits
system.l2.overall_mshr_hits::total                  3                       # number of overall MSHR hits
system.l2.demand_mshr_misses::.cpu.inst           527                       # number of demand (read+write) MSHR misses
system.l2.demand_mshr_misses::.cpu.data        119767                       # number of demand (read+write) MSHR misses
system.l2.demand_mshr_misses::total            120294                       # number of demand (read+write) MSHR misses
system.l2.overall_mshr_misses::.cpu.inst          527                       # number of overall MSHR misses
system.l2.overall_mshr_misses::.cpu.data       119767                       # number of overall MSHR misses
system.l2.overall_mshr_misses::total           120294                       # number of overall MSHR misses
system.l2.demand_mshr_miss_latency::.cpu.inst     36411500                       # number of demand (read+write) MSHR miss cycles
system.l2.demand_mshr_miss_latency::.cpu.data   8647902500                       # number of demand (read+write) MSHR miss cycles
system.l2.demand_mshr_miss_latency::total   8684314000                       # number of demand (read+write) MSHR miss cycles
system.l2.overall_mshr_miss_latency::.cpu.inst     36411500                       # number of overall MSHR miss cycles
system.l2.overall_mshr_miss_latency::.cpu.data   8647902500                       # number of overall MSHR miss cycles
system.l2.overall_mshr_miss_latency::total   8684314000                       # number of overall MSHR miss cycles
system.l2.demand_mshr_miss_rate::.cpu.inst     0.854133                       # mshr miss rate for demand accesses
system.l2.demand_mshr_miss_rate::.cpu.data     0.998807                       # mshr miss rate for demand accesses
system.l2.demand_mshr_miss_rate::total       0.998067                       # mshr miss rate for demand accesses
system.l2.overall_mshr_miss_rate::.cpu.inst     0.854133                       # mshr miss rate for overall accesses
system.l2.overall_mshr_miss_rate::.cpu.data     0.998807                       # mshr miss rate for overall accesses
system.l2.overall_mshr_miss_rate::total      0.998067                       # mshr miss rate for overall accesses
system.l2.demand_avg_mshr_miss_latency::.cpu.inst 69092.030361                       # average overall mshr miss latency
system.l2.demand_avg_mshr_miss_latency::.cpu.data 72206.054255                       # average overall mshr miss latency
system.l2.demand_avg_mshr_miss_latency::total 72192.411924                       # average overall mshr miss latency
system.l2.overall_avg_mshr_miss_latency::.cpu.inst 69092.030361                       # average overall mshr miss latency
system.l2.overall_avg_mshr_miss_latency::.cpu.data 72206.054255                       # average overall mshr miss latency
system.l2.overall_avg_mshr_miss_latency::total 72192.411924                       # average overall mshr miss latency
system.l2.replacements                         112164                       # number of replacements
system.l2.WritebackDirty_hits::.writebacks        70010                       # number of WritebackDirty hits
system.l2.WritebackDirty_hits::total            70010                       # number of WritebackDirty hits
system.l2.WritebackDirty_accesses::.writebacks        70010                       # number of WritebackDirty accesses(hits+misses)
system.l2.WritebackDirty_accesses::total        70010                       # number of WritebackDirty accesses(hits+misses)
system.l2.WritebackClean_hits::.writebacks          196                       # number of WritebackClean hits
system.l2.WritebackClean_hits::total              196                       # number of WritebackClean hits
system.l2.WritebackClean_accesses::.writebacks          196                       # number of WritebackClean accesses(hits+misses)
system.l2.WritebackClean_accesses::total          196                       # number of WritebackClean accesses(hits+misses)
system.l2.CleanEvict_mshr_misses::.writebacks           63                       # number of CleanEvict MSHR misses
system.l2.CleanEvict_mshr_misses::total            63                       # number of CleanEvict MSHR misses
system.l2.CleanEvict_mshr_miss_rate::.writebacks          inf                       # mshr miss rate for CleanEvict accesses
system.l2.CleanEvict_mshr_miss_rate::total          inf                       # mshr miss rate for CleanEvict accesses
system.l2.ReadExReq_hits::.cpu.data                 8                       # number of ReadExReq hits
system.l2.ReadExReq_hits::total                     8                       # number of ReadExReq hits
system.l2.ReadExReq_misses::.cpu.data           70238                       # number of ReadExReq misses
system.l2.ReadExReq_misses::total               70238                       # number of ReadExReq misses
system.l2.ReadExReq_miss_latency::.cpu.data   5950649000                       # number of ReadExReq miss cycles
system.l2.ReadExReq_miss_latency::total    5950649000                       # number of ReadExReq miss cycles
system.l2.ReadExReq_accesses::.cpu.data         70246                       # number of ReadExReq accesses(hits+misses)
system.l2.ReadExReq_accesses::total             70246                       # number of ReadExReq accesses(hits+misses)
system.l2.ReadExReq_miss_rate::.cpu.data     0.999886                       # miss rate for ReadExReq accesses
system.l2.ReadExReq_miss_rate::total         0.999886                       # miss rate for ReadExReq accesses
system.l2.ReadExReq_avg_miss_latency::.cpu.data 84721.219283                       # average ReadExReq miss latency
system.l2.ReadExReq_avg_miss_latency::total 84721.219283                       # average ReadExReq miss latency
system.l2.ReadExReq_mshr_misses::.cpu.data        70238                       # number of ReadExReq MSHR misses
system.l2.ReadExReq_mshr_misses::total          70238                       # number of ReadExReq MSHR misses
system.l2.ReadExReq_mshr_miss_latency::.cpu.data   5248269000                       # number of ReadExReq MSHR miss cycles
system.l2.ReadExReq_mshr_miss_latency::total   5248269000                       # number of ReadExReq MSHR miss cycles
system.l2.ReadExReq_mshr_miss_rate::.cpu.data     0.999886                       # mshr miss rate for ReadExReq accesses
system.l2.ReadExReq_mshr_miss_rate::total     0.999886                       # mshr miss rate for ReadExReq accesses
system.l2.ReadExReq_avg_mshr_miss_latency::.cpu.data 74721.219283                       # average ReadExReq mshr miss latency
system.l2.ReadExReq_avg_mshr_miss_latency::total 74721.219283                       # average ReadExReq mshr miss latency
system.l2.ReadCleanReq_hits::.cpu.inst             90                       # number of ReadCleanReq hits
system.l2.ReadCleanReq_hits::total                 90                       # number of ReadCleanReq hits
system.l2.ReadCleanReq_misses::.cpu.inst          527                       # number of ReadCleanReq misses
system.l2.ReadCleanReq_misses::total              527                       # number of ReadCleanReq misses
system.l2.ReadCleanReq_miss_latency::.cpu.inst     41681500                       # number of ReadCleanReq miss cycles
system.l2.ReadCleanReq_miss_latency::total     41681500                       # number of ReadCleanReq miss cycles
system.l2.ReadCleanReq_accesses::.cpu.inst          617                       # number of ReadCleanReq accesses(hits+misses)
system.l2.ReadCleanReq_accesses::total            617                       # number of ReadCleanReq accesses(hits+misses)
system.l2.ReadCleanReq_miss_rate::.cpu.inst     0.854133                       # miss rate for ReadCleanReq accesses
system.l2.ReadCleanReq_miss_rate::total      0.854133                       # miss rate for ReadCleanReq accesses
system.l2.ReadCleanReq_avg_miss_latency::.cpu.inst 79092.030361                       # average ReadCleanReq miss latency
system.l2.ReadCleanReq_avg_miss_latency::total 79092.030361                       # average ReadCleanReq miss latency
system.l2.ReadCleanReq_mshr_misses::.cpu.inst          527                       # number of ReadCleanReq MSHR misses
system.l2.ReadCleanReq_mshr_misses::total          527                       # number of ReadCleanReq MSHR misses
system.l2.ReadCleanReq_mshr_miss_latency::.cpu.inst     36411500                       # number of ReadCleanReq MSHR miss cycles
system.l2.ReadCleanReq_mshr_miss_latency::total     36411500                       # number of ReadCleanReq MSHR miss cycles
system.l2.ReadCleanReq_mshr_miss_rate::.cpu.inst     0.854133                       # mshr miss rate for ReadCleanReq accesses
system.l2.ReadCleanReq_mshr_miss_rate::total     0.854133                       # mshr miss rate for ReadCleanReq accesses
system.l2.ReadCleanReq_avg_mshr_miss_latency::.cpu.inst 69092.030361                       # average ReadCleanReq mshr miss latency
system.l2.ReadCleanReq_avg_mshr_miss_latency::total 69092.030361                       # average ReadCleanReq mshr miss latency
system.l2.ReadSharedReq_hits::.cpu.data           132                       # number of ReadSharedReq hits
system.l2.ReadSharedReq_hits::total               132                       # number of ReadSharedReq hits
system.l2.ReadSharedReq_misses::.cpu.data        49532                       # number of ReadSharedReq misses
system.l2.ReadSharedReq_misses::total           49532                       # number of ReadSharedReq misses
system.l2.ReadSharedReq_miss_latency::.cpu.data   3895121500                       # number of ReadSharedReq miss cycles
system.l2.ReadSharedReq_miss_latency::total   3895121500                       # number of ReadSharedReq miss cycles
system.l2.ReadSharedReq_accesses::.cpu.data        49664                       # number of ReadSharedReq accesses(hits+misses)
system.l2.ReadSharedReq_accesses::total         49664                       # number of ReadSharedReq accesses(hits+misses)
system.l2.ReadSharedReq_miss_rate::.cpu.data     0.997342                       # miss rate for ReadSharedReq accesses
system.l2.ReadSharedReq_miss_rate::total     0.997342                       # miss rate for ReadSharedReq accesses
system.l2.ReadSharedReq_avg_miss_latency::.cpu.data 78638.486231                       # average ReadSharedReq miss latency
system.l2.ReadSharedReq_avg_miss_latency::total 78638.486231                       # average ReadSharedReq miss latency
system.l2.ReadSharedReq_mshr_hits::.cpu.data            3                       # number of ReadSharedReq MSHR hits
system.l2.ReadSharedReq_mshr_hits::total            3                       # number of ReadSharedReq MSHR hits
system.l2.ReadSharedReq_mshr_misses::.cpu.data        49529                       # number of ReadSharedReq MSHR misses
system.l2.ReadSharedReq_mshr_misses::total        49529                       # number of ReadSharedReq MSHR misses
system.l2.ReadSharedReq_mshr_miss_latency::.cpu.data   3399633500                       # number of ReadSharedReq MSHR miss cycles
system.l2.ReadSharedReq_mshr_miss_latency::total   3399633500                       # number of ReadSharedReq MSHR miss cycles
system.l2.ReadSharedReq_mshr_miss_rate::.cpu.data     0.997282                       # mshr miss rate for ReadSharedReq accesses
system.l2.ReadSharedReq_mshr_miss_rate::total     0.997282                       # mshr miss rate for ReadSharedReq accesses
system.l2.ReadSharedReq_avg_mshr_miss_latency::.cpu.data 68639.251751                       # average ReadSharedReq mshr miss latency
system.l2.ReadSharedReq_avg_mshr_miss_latency::total 68639.251751                       # average ReadSharedReq mshr miss latency
system.l2.tags.pwrStateResidencyTicks::UNDEFINED  13567587500                       # Cumulative time (in ticks) in various power states
system.l2.tags.tagsinuse                  7217.841635                       # Cycle average of tags in use
system.l2.tags.total_refs                      240021                       # Total number of references to valid blocks.
system.l2.tags.sampled_refs                    120356                       # Sample count of references to valid blocks.
system.l2.tags.avg_refs                      1.994259                       # Average number of references to valid blocks.
system.l2.tags.warmup_cycle                     77000                       # Cycle when the warmup percentage was hit.
system.l2.tags.occ_blocks::.writebacks      14.622927                       # Average occupied blocks per requestor
system.l2.tags.occ_blocks::.cpu.inst        73.106047                       # Average occupied blocks per requestor
system.l2.tags.occ_blocks::.cpu.data      7130.112660                       # Average occupied blocks per requestor
system.l2.tags.occ_percent::.writebacks      0.001785                       # Average percentage of cache occupancy
system.l2.tags.occ_percent::.cpu.inst        0.008924                       # Average percentage of cache occupancy
system.l2.tags.occ_percent::.cpu.data        0.870375                       # Average percentage of cache occupancy
system.l2.tags.occ_percent::total            0.881084                       # Average percentage of cache occupancy
system.l2.tags.occ_task_id_blocks::1024          8192                       # Occupied blocks per task id
system.l2.tags.age_task_id_blocks_1024::0            2                       # Occupied blocks per task id
system.l2.tags.age_task_id_blocks_1024::1           19                       # Occupied blocks per task id
system.l2.tags.age_task_id_blocks_1024::2          339                       # Occupied blocks per task id
system.l2.tags.age_task_id_blocks_1024::3         7832                       # Occupied blocks per task id
system.l2.tags.occ_task_id_percent::1024            1                       # Percentage of cache occupancy per task id
system.l2.tags.tag_accesses                    360443                       # Number of tag accesses
system.l2.tags.data_accesses                   360443                       # Number of data accesses
system.cpu_voltage_domain.voltage                   1                       # Voltage in Volts
system.mem_ctrls.pwrStateResidencyTicks::UNDEFINED  13567587500                       # Cumulative time (in ticks) in various power states
system.mem_ctrls.bytes_read::.cpu.inst          33728                       # Number of bytes read from this memory
system.mem_ctrls.bytes_read::.cpu.data        7665088                       # Number of bytes read from this memory
system.mem_ctrls.bytes_read::total            7698816                       # Number of bytes read from this memory
system.mem_ctrls.bytes_inst_read::.cpu.inst        33728                       # Number of instructions bytes read from this memory
system.mem_ctrls.bytes_inst_read::total         33728                       # Number of instructions bytes read from this memory
system.mem_ctrls.bytes_written::.writebacks      4313216                       # Number of bytes written to this memory
system.mem_ctrls.bytes_written::total         4313216                       # Number of bytes written to this memory
system.mem_ctrls.num_reads::.cpu.inst             527                       # Number of read requests responded to by this memory
system.mem_ctrls.num_reads::.cpu.data          119767                       # Number of read requests responded to by this memory
system.mem_ctrls.num_reads::total              120294                       # Number of read requests responded to by this memory
system.mem_ctrls.num_writes::.writebacks        67394                       # Number of write requests responded to by this memory
system.mem_ctrls.num_writes::total              67394                       # Number of write requests responded to by this memory
system.mem_ctrls.bw_read::.cpu.inst           2485925                       # Total read bandwidth from this memory (bytes/s)
system.mem_ctrls.bw_read::.cpu.data         564955855                       # Total read bandwidth from this memory (bytes/s)
system.mem_ctrls.bw_read::total             567441780                       # Total read bandwidth from this memory (bytes/s)
system.mem_ctrls.bw_inst_read::.cpu.inst      2485925                       # Instruction read bandwidth from this memory (bytes/s)
system.mem_ctrls.bw_inst_read::total          2485925                       # Instruction read bandwidth from this memory (bytes/s)
system.mem_ctrls.bw_write::.writebacks      317905892                       # Write bandwidth from this memory (bytes/s)
system.mem_ctrls.bw_write::total            317905892                       # Write bandwidth from this memory (bytes/s)
system.mem_ctrls.bw_total::.writebacks      317905892                       # Total bandwidth to/from this memory (bytes/s)
system.mem_ctrls.bw_total::.cpu.inst          2485925                       # Total bandwidth to/from this memory (bytes/s)
system.mem_ctrls.bw_total::.cpu.data        564955855                       # Total bandwidth to/from this memory (bytes/s)
system.mem_ctrls.bw_total::total            885347671                       # Total bandwidth to/from this memory (bytes/s)
system.mem_ctrls.avgPriority_.writebacks::samples     67394.00                       # Average QoS priority value for accepted requests
system.mem_ctrls.avgPriority_.cpu.inst::samples       527.00                       # Average QoS priority value for accepted requests
system.mem_ctrls.avgPriority_.cpu.data::samples    119766.00                       # Average QoS priority value for accepted requests
system.mem_ctrls.priorityMinLatency      0.000000018750                       # per QoS priority minimum request to response latency (s)
system.mem_ctrls.priorityMaxLatency      0.000839830500                       # per QoS priority maximum request to response latency (s)
system.mem_ctrls.numReadWriteTurnArounds         4202                       # Number of turnarounds from READ to WRITE
system.mem_ctrls.numWriteReadTurnArounds         4202                       # Number of turnarounds from WRITE to READ
system.mem_ctrls.numStayReadState              302174                       # Number of times bus staying in READ state
system.mem_ctrls.numStayWriteState              63244                       # Number of times bus staying in WRITE state
system.mem_ctrls.readReqs                      120294                       # Number of read requests accepted
system.mem_ctrls.writeReqs                      67394                       # Number of write requests accepted
system.mem_ctrls.readBursts                    120294                       # Number of DRAM read bursts, including those serviced by the write queue
system.mem_ctrls.writeBursts                    67394                       # Number of DRAM write bursts, including those merged in the write queue
system.mem_ctrls.servicedByWrQ                      1                       # Number of DRAM read bursts serviced by the write queue
system.mem_ctrls.mergedWrBursts                     0                       # Number of DRAM write bursts merged with an existing one
system.mem_ctrls.neitherReadNorWriteReqs            0                       # Number of requests that are neither read nor write
system.mem_ctrls.perBankRdBursts::0              7701                       # Per bank write bursts
system.mem_ctrls.perBankRdBursts::1              7586                       # Per bank write bursts
system.mem_ctrls.perBankRdBursts::2              7575                       # Per bank write bursts
system.mem_ctrls.perBankRdBursts::3              7505                       # Per bank write bursts
system.mem_ctrls.perBankRdBursts::4              7552                       # Per bank write bursts
system.mem_ctrls.perBankRdBursts::5              7493                       # Per bank write bursts
system.mem_ctrls.perBankRdBursts::6              7492                       # Per bank write bursts
system.mem_ctrls.perBankRdBursts::7              7659                       # Per bank write bursts
system.mem_ctrls.perBankRdBursts::8              7498                       # Per bank write bursts
system.mem_ctrls.perBankRdBursts::9              7418                       # Per bank write bursts
system.mem_ctrls.perBankRdBursts::10             7454                       # Per bank write bursts
system.mem_ctrls.perBankRdBursts::11             7435                       # Per bank write bursts
system.mem_ctrls.perBankRdBursts::12             7507                       # Per bank write bursts
system.mem_ctrls.perBankRdBursts::13             7480                       # Per bank write bursts
system.mem_ctrls.perBankRdBursts::14             7444                       # Per bank write bursts
system.mem_ctrls.perBankRdBursts::15             7494                       # Per bank write bursts
system.mem_ctrls.perBankWrBursts::0              4256                       # Per bank write bursts
system.mem_ctrls.perBankWrBursts::1              4270                       # Per bank write bursts
system.mem_ctrls.perBankWrBursts::2              4315                       # Per bank write bursts
system.mem_ctrls.perBankWrBursts::3              4280                       # Per bank write bursts
system.mem_ctrls.perBankWrBursts::4              4318                       # Per bank write bursts
system.mem_ctrls.perBankWrBursts::5              4297                       # Per bank write bursts
system.mem_ctrls.perBankWrBursts::6              4176                       # Per bank write bursts
system.mem_ctrls.perBankWrBursts::7              4242                       # Per bank write bursts
system.mem_ctrls.perBankWrBursts::8              4166                       # Per bank write bursts
system.mem_ctrls.perBankWrBursts::9              4137                       # Per bank write bursts
system.mem_ctrls.perBankWrBursts::10             4128                       # Per bank write bursts
system.mem_ctrls.perBankWrBursts::11             4133                       # Per bank write bursts
system.mem_ctrls.perBankWrBursts::12             4180                       # Per bank write bursts
system.mem_ctrls.perBankWrBursts::13             4159                       # Per bank write bursts
system.mem_ctrls.perBankWrBursts::14             4136                       # Per bank write bursts
system.mem_ctrls.perBankWrBursts::15             4170                       # Per bank write bursts
system.mem_ctrls.avgRdQLen                       1.38                       # Average read queue length when enqueuing
system.mem_ctrls.avgWrQLen                      25.51                       # Average write queue length when enqueuing
system.mem_ctrls.totQLat                   1466685500                       # Total ticks spent queuing
system.mem_ctrls.totBusLat                  601465000                       # Total ticks spent in databus transfers
system.mem_ctrls.totMemAccLat              3722179250                       # Total ticks spent from burst creation until serviced by the DRAM
system.mem_ctrls.avgQLat                     12192.61                       # Average queueing delay per DRAM burst
system.mem_ctrls.avgBusLat                    5000.00                       # Average bus latency per DRAM burst
system.mem_ctrls.avgMemAccLat                30942.61                       # Average memory access latency per DRAM burst
system.mem_ctrls.numRdRetry                         0                       # Number of times read queue was full causing retry
system.mem_ctrls.numWrRetry                         0                       # Number of times write queue was full causing retry
system.mem_ctrls.readRowHits                   107688                       # Number of row buffer hits during reads
system.mem_ctrls.writeRowHits                   60379                       # Number of row buffer hits during writes
system.mem_ctrls.readRowHitRate                 89.52                       # Row buffer hit rate for reads
system.mem_ctrls.writeRowHitRate                89.59                       # Row buffer hit rate for writes
system.mem_ctrls.readPktSize::0                     0                       # Read request sizes (log2)
system.mem_ctrls.readPktSize::1                     0                       # Read request sizes (log2)
system.mem_ctrls.readPktSize::2                     0                       # Read request sizes (log2)
system.mem_ctrls.readPktSize::3                     0                       # Read request sizes (log2)
system.mem_ctrls.readPktSize::4                     0                       # Read request sizes (log2)
system.mem_ctrls.readPktSize::5                     0                       # Read request sizes (log2)
system.mem_ctrls.readPktSize::6                120294                       # Read request sizes (log2)
system.mem_ctrls.writePktSize::0                    0                       # Write request sizes (log2)
system.mem_ctrls.writePktSize::1                    0                       # Write request sizes (log2)
system.mem_ctrls.writePktSize::2                    0                       # Write request sizes (log2)
system.mem_ctrls.writePktSize::3                    0                       # Write request sizes (log2)
system.mem_ctrls.writePktSize::4                    0                       # Write request sizes (log2)
system.mem_ctrls.writePktSize::5                    0                       # Write request sizes (log2)
system.mem_ctrls.writePktSize::6                67394                       # Write request sizes (log2)
system.mem_ctrls.rdQLenPdf::0                   67556                       # What read queue length does an incoming req see
system.mem_ctrls.rdQLenPdf::1                   52117                       # What read queue length does an incoming req see
system.mem_ctrls.rdQLenPdf::2                     546                       # What read queue length does an incoming req see
system.mem_ctrls.rdQLenPdf::3                      73                       # What read queue length does an incoming req see
system.mem_ctrls.rdQLenPdf::4                       1                       # What read queue length does an incoming req see
system.mem_ctrls.rdQLenPdf::5                       0                       # What read queue length does an incoming req see
system.mem_ctrls.rdQLenPdf::6                       0                       # What read queue length does an incoming req see
system.mem_ctrls.rdQLenPdf::7                       0                       # What read queue length does an incoming req see
system.mem_ctrls.rdQLenPdf::8                       0                       # What read queue length does an incoming req see
system.mem_ctrls.rdQLenPdf::9                       0                       # What read queue length does an incoming req see
system.mem_ctrls.rdQLenPdf::10                      0                       # What read queue length does an incoming req see
system.mem_ctrls.rdQLenPdf::11                      0                       # What read queue length does an incoming req see
system.mem_ctrls.rdQLenPdf::12                      0                       # What read queue length does an incoming req see
system.mem_ctrls.rdQLenPdf::13                      0                       # What read queue length does an incoming req see
system.mem_ctrls.rdQLenPdf::14                      0                       # What read queue length does an incoming req see
system.mem_ctrls.rdQLenPdf::15                      0                       # What read queue length does an incoming req see
system.mem_ctrls.rdQLenPdf::16                      0                       # What read queue length does an incoming req see
system.mem_ctrls.rdQLenPdf::17                      0                       # What read queue length does an incoming req see
system.mem_ctrls.rdQLenPdf::18                      0                       # What read queue length does an incoming req see
system.mem_ctrls.rdQLenPdf::19                      0                       # What read queue length does an incoming req see
system.mem_ctrls.rdQLenPdf::20                      0                       # What read queue length does an incoming req see
system.mem_ctrls.rdQLenPdf::21                      0                       # What read queue length does an incoming req see
system.mem_ctrls.rdQLenPdf::22                      0                       # What read queue length does an incoming req see
system.mem_ctrls.rdQLenPdf::23                      0                       # What read queue length does an incoming req see
system.mem_ctrls.rdQLenPdf::24                      0                       # What read queue length does an incoming req see
system.mem_ctrls.rdQLenPdf::25                      0                       # What read queue length does an incoming req see
system.mem_ctrls.rdQLenPdf::26                      0                       # What read queue length does an incoming req see
system.mem_ctrls.rdQLenPdf::27                      0                       # What read queue length does an incoming req see
system.mem_ctrls.rdQLenPdf::28                      0                       # What read queue length does an incoming req see
system.mem_ctrls.rdQLenPdf::29                      0                       # What read queue length does an incoming req see
system.mem_ctrls.rdQLenPdf::30                      0                       # What read queue length does an incoming req see
system.mem_ctrls.rdQLenPdf::31                      0                       # What read queue length does an incoming req see
system.mem_ctrls.wrQLenPdf::0                       1                       # What write queue length does an incoming req see
system.mem_ctrls.wrQLenPdf::1                       1                       # What write queue length does an incoming req see
system.mem_ctrls.wrQLenPdf::2                       1                       # What write queue length does an incoming req see
system.mem_ctrls.wrQLenPdf::3                       1                       # What write queue length does an incoming req see
system.mem_ctrls.wrQLenPdf::4                       1                       # What write queue length does an incoming req see
system.mem_ctrls.wrQLenPdf::5                       1                       # What write queue length does an incoming req see
system.mem_ctrls.wrQLenPdf::6                       1                       # What write queue length does an incoming req see
system.mem_ctrls.wrQLenPdf::7                       1                       # What write queue length does an incoming req see
system.mem_ctrls.wrQLenPdf::8                       1                       # What write queue length does an incoming req see
system.mem_ctrls.wrQLenPdf::9                       1                       # What write queue length does an incoming req see
system.mem_ctrls.wrQLenPdf::10                      1                       # What write queue length does an incoming req see
system.mem_ctrls.wrQLenPdf::11                      1                       # What write queue length does an incoming req see
system.mem_ctrls.wrQLenPdf::12                      1                       # What write queue length does an incoming req see
system.mem_ctrls.wrQLenPdf::13                      1                       # What write queue length does an incoming req see
system.mem_ctrls.wrQLenPdf::14                      1                       # What write queue length does an incoming req see
system.mem_ctrls.wrQLenPdf::15                     57                       # What write queue length does an incoming req see
system.mem_ctrls.wrQLenPdf::16                     58                       # What write queue length does an incoming req see
system.mem_ctrls.wrQLenPdf::17                   3203                       # What write queue length does an incoming req see
system.mem_ctrls.wrQLenPdf::18                   4309                       # What write queue length does an incoming req see
system.mem_ctrls.wrQLenPdf::19                   4205                       # What write queue length does an incoming req see
system.mem_ctrls.wrQLenPdf::20                   4318                       # What write queue length does an incoming req see
system.mem_ctrls.wrQLenPdf::21                   4204                       # What write queue length does an incoming req see
system.mem_ctrls.wrQLenPdf::22                   4221                       # What write queue length does an incoming req see
system.mem_ctrls.wrQLenPdf::23                   4222                       # What write queue length does an incoming req see
system.mem_ctrls.wrQLenPdf::24                   4284                       # What write queue length does an incoming req see
system.mem_ctrls.wrQLenPdf::25                   4244                       # What write queue length does an incoming req see
system.mem_ctrls.wrQLenPdf::26                   4236                       # What write queue length does an incoming req see
system.mem_ctrls.wrQLenPdf::27                   4205                       # What write queue length does an incoming req see
system.mem_ctrls.wrQLenPdf::28                   4788                       # What write queue length does an incoming req see
system.mem_ctrls.wrQLenPdf::29                   4215                       # What write queue length does an incoming req see
system.mem_ctrls.wrQLenPdf::30                   4204                       # What write queue length does an incoming req see
system.mem_ctrls.wrQLenPdf::31                   4203                       # What write queue length does an incoming req see
system.mem_ctrls.wrQLenPdf::32                   4202                       # What write queue length does an incoming req see
system.mem_ctrls.wrQLenPdf::33                      1                       # What write queue length does an incoming req see
system.mem_ctrls.wrQLenPdf::34                      0                       # What write queue length does an incoming req see
system.mem_ctrls.wrQLenPdf::35                      0                       # What write queue length does an incoming req see
system.mem_ctrls.wrQLenPdf::36                      0                       # What write queue length does an incoming req see
system.mem_ctrls.wrQLenPdf::37                      0                       # What write queue length does an incoming req see
system.mem_ctrls.wrQLenPdf::38                      0                       # What write queue length does an incoming req see
system.mem_ctrls.wrQLenPdf::39                      0                       # What write queue length does an incoming req see
system.mem_ctrls.wrQLenPdf::40                      0                       # What write queue length does an incoming req see
system.mem_ctrls.wrQLenPdf::41                      0                       # What write queue length does an incoming req see
system.mem_ctrls.wrQLenPdf::42                      0                       # What write queue length does an incoming req see
system.mem_ctrls.wrQLenPdf::43                      0                       # What write queue length does an incoming req see
system.mem_ctrls.wrQLenPdf::44                      0                       # What write queue length does an incoming req see
system.mem_ctrls.wrQLenPdf::45                      0                       # What write queue length does an incoming req see
system.mem_ctrls.wrQLenPdf::46                      0                       # What write queue length does an incoming req see
system.mem_ctrls.wrQLenPdf::47                      0                       # What write queue length does an incoming req see
system.mem_ctrls.wrQLenPdf::48                      0                       # What write queue length does an incoming req see
system.mem_ctrls.wrQLenPdf::49                      0                       # What write queue length does an incoming req see
system.mem_ctrls.wrQLenPdf::50                      0                       # What write queue length does an incoming req see
system.mem_ctrls.wrQLenPdf::51                      0                       # What write queue length does an incoming req see
system.mem_ctrls.wrQLenPdf::52                      0                       # What write queue length does an incoming req see
system.mem_ctrls.wrQLenPdf::53                      0                       # What write queue length does an incoming req see
system.mem_ctrls.wrQLenPdf::54                      0                       # What write queue length does an incoming req see
system.mem_ctrls.wrQLenPdf::55                      0                       # What write queue length does an incoming req see
system.mem_ctrls.wrQLenPdf::56                      0                       # What write queue length does an incoming req see
system.mem_ctrls.wrQLenPdf::57                      0                       # What write queue length does an incoming req see
system.mem_ctrls.wrQLenPdf::58                      0                       # What write queue length does an incoming req see
system.mem_ctrls.wrQLenPdf::59                      0                       # What write queue length does an incoming req see
system.mem_ctrls.wrQLenPdf::60                      0                       # What write queue length does an incoming req see
system.mem_ctrls.wrQLenPdf::61                      0                       # What write queue length does an incoming req see
system.mem_ctrls.wrQLenPdf::62                      0                       # What write queue length does an incoming req see
system.mem_ctrls.wrQLenPdf::63                      0                       # What write queue length does an incoming req see
system.mem_ctrls.bytesPerActivate::samples        19589                       # Bytes accessed per row activation
system.mem_ctrls.bytesPerActivate::mean    613.098372                       # Bytes accessed per row activation
system.mem_ctrls.bytesPerActivate::gmean   506.322756                       # Bytes accessed per row activation
system.mem_ctrls.bytesPerActivate::stdev   305.976208                       # Bytes accessed per row activation
system.mem_ctrls.bytesPerActivate::0-127         1071      5.47%      5.47% # Bytes accessed per row activation
system.mem_ctrls.bytesPerActivate::128-255         1473      7.52%     12.99% # Bytes accessed per row activation
system.mem_ctrls.bytesPerActivate::256-383          679      3.47%     16.45% # Bytes accessed per row activation
system.mem_ctrls.bytesPerActivate::384-511          742      3.79%     20.24% # Bytes accessed per row activation
system.mem_ctrls.bytesPerActivate::512-639         8895     45.41%     65.65% # Bytes accessed per row activation
system.mem_ctrls.bytesPerActivate::640-767          237      1.21%     66.86% # Bytes accessed per row activation
system.mem_ctrls.bytesPerActivate::768-895          532      2.72%     69.57% # Bytes accessed per row activation
system.mem_ctrls.bytesPerActivate::896-1023          406      2.07%     71.65% # Bytes accessed per row activation
system.mem_ctrls.bytesPerActivate::1024-1151         5554     28.35%    100.00% # Bytes accessed per row activation
system.mem_ctrls.bytesPerActivate::total        19589                       # Bytes accessed per row activation
system.mem_ctrls.rdPerTurnAround::samples         4202                       # Reads before turning the bus around for writes
system.mem_ctrls.rdPerTurnAround::mean      28.546882                       # Reads before turning the bus around for writes
system.mem_ctrls.rdPerTurnAround::gmean     24.140222                       # Reads before turning the bus around for writes
system.mem_ctrls.rdPerTurnAround::stdev     35.474306                       # Reads before turning the bus around for writes
system.mem_ctrls.rdPerTurnAround::0-31           2077     49.43%     49.43% # Reads before turning the bus around for writes
system.mem_ctrls.rdPerTurnAround::32-63          2040     48.55%     97.98% # Reads before turning the bus around for writes
system.mem_ctrls.rdPerTurnAround::64-95             4      0.10%     98.07% # Reads before turning the bus around for writes
system.mem_ctrls.rdPerTurnAround::96-127           29      0.69%     98.76% # Reads before turning the bus around for writes
system.mem_ctrls.rdPerTurnAround::128-159            3      0.07%     98.83% # Reads before turning the bus around for writes
system.mem_ctrls.rdPerTurnAround::160-191            5      0.12%     98.95% # Reads before turning the bus around for writes
[...]
system.cpu.icache.ReadReq_avg_miss_latency::total 71613.452188                       # average ReadReq miss latency
system.cpu.icache.ReadReq_mshr_misses::.cpu.inst          617                       # number of ReadReq MSHR misses
system.cpu.icache.ReadReq_mshr_misses::total          617                       # number of ReadReq MSHR misses
system.cpu.icache.ReadReq_mshr_miss_latency::.cpu.inst     43568500                       # number of ReadReq MSHR miss cycles
system.cpu.icache.ReadReq_mshr_miss_latency::total     43568500                       # number of ReadReq MSHR miss cycles
system.cpu.icache.ReadReq_mshr_miss_rate::.cpu.inst     0.000531                       # mshr miss rate for ReadReq accesses
system.cpu.icache.ReadReq_mshr_miss_rate::total     0.000531                       # mshr miss rate for ReadReq accesses
system.cpu.icache.ReadReq_avg_mshr_miss_latency::.cpu.inst 70613.452188                       # average ReadReq mshr miss latency
system.cpu.icache.ReadReq_avg_mshr_miss_latency::total 70613.452188                       # average ReadReq mshr miss latency
system.cpu.icache.tags.pwrStateResidencyTicks::UNDEFINED  13567587500                       # Cumulative time (in ticks) in various power states
system.cpu.icache.tags.tagsinuse           369.399124                       # Cycle average of tags in use
system.cpu.icache.tags.total_refs             1162748                       # Total number of references to valid blocks.
system.cpu.icache.tags.sampled_refs               617                       # Sample count of references to valid blocks.
system.cpu.icache.tags.avg_refs           1884.518639                       # Average number of references to valid blocks.
system.cpu.icache.tags.warmup_cycle             87500                       # Cycle when the warmup percentage was hit.
system.cpu.icache.tags.occ_blocks::.cpu.inst   369.399124                       # Average occupied blocks per requestor
system.cpu.icache.tags.occ_percent::.cpu.inst     0.360741                       # Average percentage of cache occupancy
system.cpu.icache.tags.occ_percent::total     0.360741                       # Average percentage of cache occupancy
system.cpu.icache.tags.occ_task_id_blocks::1024          409                       # Occupied blocks per task id
system.cpu.icache.tags.age_task_id_blocks_1024::3          106                       # Occupied blocks per task id
system.cpu.icache.tags.age_task_id_blocks_1024::4          303                       # Occupied blocks per task id
system.cpu.icache.tags.occ_task_id_percent::1024     0.399414                       # Percentage of cache occupancy per task id
system.cpu.icache.tags.tag_accesses           1163365                       # Number of tag accesses
system.cpu.icache.tags.data_accesses          1163365                       # Number of data accesses
system.cpu.dtb.walker.pwrStateResidencyTicks::UNDEFINED  13567587500                       # Cumulative time (in ticks) in various power states
system.cpu.dtb.stage2_mmu.stage2_tlb.walker.pwrStateResidencyTicks::UNDEFINED  13567587500                       # Cumulative time (in ticks) in various power states
system.cpu.dcache.pwrStateResidencyTicks::UNDEFINED  13567587500                       # Cumulative time (in ticks) in various power states
system.cpu.dcache.demand_hits::.cpu.data      6988092                       # number of demand (read+write) hits
system.cpu.dcache.demand_hits::total          6988092                       # number of demand (read+write) hits
system.cpu.dcache.overall_hits::.cpu.data      6988199                       # number of overall hits
system.cpu.dcache.overall_hits::total         6988199                       # number of overall hits
system.cpu.dcache.demand_misses::.cpu.data       154213                       # number of demand (read+write) misses
system.cpu.dcache.demand_misses::total         154213                       # number of demand (read+write) misses
system.cpu.dcache.overall_misses::.cpu.data       155719                       # number of overall misses
system.cpu.dcache.overall_misses::total        155719                       # number of overall misses
system.cpu.dcache.demand_miss_latency::.cpu.data  10296621500                       # number of demand (read+write) miss cycles
system.cpu.dcache.demand_miss_latency::total  10296621500                       # number of demand (read+write) miss cycles
system.cpu.dcache.overall_miss_latency::.cpu.data  10296621500                       # number of overall miss cycles
system.cpu.dcache.overall_miss_latency::total  10296621500                       # number of overall miss cycles
system.cpu.dcache.demand_accesses::.cpu.data      7142305                       # number of demand (read+write) accesses
system.cpu.dcache.demand_accesses::total      7142305                       # number of demand (read+write) accesses
system.cpu.dcache.overall_accesses::.cpu.data      7143918                       # number of overall (read+write) accesses
system.cpu.dcache.overall_accesses::total      7143918                       # number of overall (read+write) accesses
system.cpu.dcache.demand_miss_rate::.cpu.data     0.021591                       # miss rate for demand accesses
system.cpu.dcache.demand_miss_rate::total     0.021591                       # miss rate for demand accesses
system.cpu.dcache.overall_miss_rate::.cpu.data     0.021797                       # miss rate for overall accesses
system.cpu.dcache.overall_miss_rate::total     0.021797                       # miss rate for overall accesses
system.cpu.dcache.demand_avg_miss_latency::.cpu.data 66768.829476                       # average overall miss latency
system.cpu.dcache.demand_avg_miss_latency::total 66768.829476                       # average overall miss latency
system.cpu.dcache.overall_avg_miss_latency::.cpu.data 66123.090310                       # average overall miss latency
system.cpu.dcache.overall_avg_miss_latency::total 66123.090310                       # average overall miss latency
system.cpu.dcache.blocked_cycles::no_mshrs        33860                       # number of cycles access was blocked
system.cpu.dcache.blocked_cycles::no_targets            0                       # number of cycles access was blocked
system.cpu.dcache.blocked::no_mshrs               570                       # number of cycles access was blocked
system.cpu.dcache.blocked::no_targets               0                       # number of cycles access was blocked
system.cpu.dcache.avg_blocked_cycles::no_mshrs    59.403509                       # average number of cycles each access was blocked
system.cpu.dcache.avg_blocked_cycles::no_targets          nan                       # average number of cycles each access was blocked
system.cpu.dcache.writebacks::.writebacks        70010                       # number of writebacks
system.cpu.dcache.writebacks::total             70010                       # number of writebacks
system.cpu.dcache.demand_mshr_hits::.cpu.data        35803                       # number of demand (read+write) MSHR hits
system.cpu.dcache.demand_mshr_hits::total        35803                       # number of demand (read+write) MSHR hits
system.cpu.dcache.overall_mshr_hits::.cpu.data        35803                       # number of overall MSHR hits
system.cpu.dcache.overall_mshr_hits::total        35803                       # number of overall MSHR hits
system.cpu.dcache.demand_mshr_misses::.cpu.data       118410                       # number of demand (read+write) MSHR misses
system.cpu.dcache.demand_mshr_misses::total       118410                       # number of demand (read+write) MSHR misses
system.cpu.dcache.overall_mshr_misses::.cpu.data       119910                       # number of overall MSHR misses
system.cpu.dcache.overall_mshr_misses::total       119910                       # number of overall MSHR misses
system.cpu.dcache.demand_mshr_miss_latency::.cpu.data   9915104000                       # number of demand (read+write) MSHR miss cycles
system.cpu.dcache.demand_mshr_miss_latency::total   9915104000                       # number of demand (read+write) MSHR miss cycles
system.cpu.dcache.overall_mshr_miss_latency::.cpu.data  10027155999                       # number of overall MSHR miss cycles
system.cpu.dcache.overall_mshr_miss_latency::total  10027155999                       # number of overall MSHR miss cycles
system.cpu.dcache.demand_mshr_miss_rate::.cpu.data     0.016579                       # mshr miss rate for demand accesses
system.cpu.dcache.demand_mshr_miss_rate::total     0.016579                       # mshr miss rate for demand accesses
system.cpu.dcache.overall_mshr_miss_rate::.cpu.data     0.016785                       # mshr miss rate for overall accesses
system.cpu.dcache.overall_mshr_miss_rate::total     0.016785                       # mshr miss rate for overall accesses
system.cpu.dcache.demand_avg_mshr_miss_latency::.cpu.data 83735.360189                       # average overall mshr miss latency
system.cpu.dcache.demand_avg_mshr_miss_latency::total 83735.360189                       # average overall mshr miss latency
system.cpu.dcache.overall_avg_mshr_miss_latency::.cpu.data 83622.350088                       # average overall mshr miss latency
system.cpu.dcache.overall_avg_mshr_miss_latency::total 83622.350088                       # average overall mshr miss latency
system.cpu.dcache.replacements                 119398                       # number of replacements
system.cpu.dcache.ReadReq_hits::.cpu.data      5638611                       # number of ReadReq hits
system.cpu.dcache.ReadReq_hits::total         5638611                       # number of ReadReq hits
system.cpu.dcache.ReadReq_misses::.cpu.data        48187                       # number of ReadReq misses
system.cpu.dcache.ReadReq_misses::total         48187                       # number of ReadReq misses
system.cpu.dcache.ReadReq_miss_latency::.cpu.data   3908280000                       # number of ReadReq miss cycles
system.cpu.dcache.ReadReq_miss_latency::total   3908280000                       # number of ReadReq miss cycles
system.cpu.dcache.ReadReq_accesses::.cpu.data      5686798                       # number of ReadReq accesses(hits+misses)
system.cpu.dcache.ReadReq_accesses::total      5686798                       # number of ReadReq accesses(hits+misses)
system.cpu.dcache.ReadReq_miss_rate::.cpu.data     0.008473                       # miss rate for ReadReq accesses
system.cpu.dcache.ReadReq_miss_rate::total     0.008473                       # miss rate for ReadReq accesses
system.cpu.dcache.ReadReq_avg_miss_latency::.cpu.data 81106.522506                       # average ReadReq miss latency
system.cpu.dcache.ReadReq_avg_miss_latency::total 81106.522506                       # average ReadReq miss latency
system.cpu.dcache.ReadReq_mshr_hits::.cpu.data           23                       # number of ReadReq MSHR hits
system.cpu.dcache.ReadReq_mshr_hits::total           23                       # number of ReadReq MSHR hits
system.cpu.dcache.ReadReq_mshr_misses::.cpu.data        48164                       # number of ReadReq MSHR misses
system.cpu.dcache.ReadReq_mshr_misses::total        48164                       # number of ReadReq MSHR misses
system.cpu.dcache.ReadReq_mshr_miss_latency::.cpu.data   3859001000                       # number of ReadReq MSHR miss cycles
system.cpu.dcache.ReadReq_mshr_miss_latency::total   3859001000                       # number of ReadReq MSHR miss cycles
system.cpu.dcache.ReadReq_mshr_miss_rate::.cpu.data     0.008469                       # mshr miss rate for ReadReq accesses
system.cpu.dcache.ReadReq_mshr_miss_rate::total     0.008469                       # mshr miss rate for ReadReq accesses
system.cpu.dcache.ReadReq_avg_mshr_miss_latency::.cpu.data 80122.103646                       # average ReadReq mshr miss latency
system.cpu.dcache.ReadReq_avg_mshr_miss_latency::total 80122.103646                       # average ReadReq mshr miss latency
system.cpu.dcache.WriteReq_hits::.cpu.data      1349481                       # number of WriteReq hits
system.cpu.dcache.WriteReq_hits::total        1349481                       # number of WriteReq hits
system.cpu.dcache.WriteReq_misses::.cpu.data       106026                       # number of WriteReq misses
system.cpu.dcache.WriteReq_misses::total       106026                       # number of WriteReq misses
system.cpu.dcache.WriteReq_miss_latency::.cpu.data   6388341500                       # number of WriteReq miss cycles
system.cpu.dcache.WriteReq_miss_latency::total   6388341500                       # number of WriteReq miss cycles
system.cpu.dcache.WriteReq_accesses::.cpu.data      1455507                       # number of WriteReq accesses(hits+misses)
system.cpu.dcache.WriteReq_accesses::total      1455507                       # number of WriteReq accesses(hits+misses)
system.cpu.dcache.WriteReq_miss_rate::.cpu.data     0.072845                       # miss rate for WriteReq accesses
system.cpu.dcache.WriteReq_miss_rate::total     0.072845                       # miss rate for WriteReq accesses
system.cpu.dcache.WriteReq_avg_miss_latency::.cpu.data 60252.593703                       # average WriteReq miss latency
system.cpu.dcache.WriteReq_avg_miss_latency::total 60252.593703                       # average WriteReq miss latency
system.cpu.dcache.WriteReq_mshr_hits::.cpu.data        35780                       # number of WriteReq MSHR hits
system.cpu.dcache.WriteReq_mshr_hits::total        35780                       # number of WriteReq MSHR hits
system.cpu.dcache.WriteReq_mshr_misses::.cpu.data        70246                       # number of WriteReq MSHR misses
system.cpu.dcache.WriteReq_mshr_misses::total        70246                       # number of WriteReq MSHR misses
system.cpu.dcache.WriteReq_mshr_miss_latency::.cpu.data   6056103000                       # number of WriteReq MSHR miss cycles
system.cpu.dcache.WriteReq_mshr_miss_latency::total   6056103000                       # number of WriteReq MSHR miss cycles
system.cpu.dcache.WriteReq_mshr_miss_rate::.cpu.data     0.048262                       # mshr miss rate for WriteReq accesses
system.cpu.dcache.WriteReq_mshr_miss_rate::total     0.048262                       # mshr miss rate for WriteReq accesses
system.cpu.dcache.WriteReq_avg_mshr_miss_latency::.cpu.data 86212.780799                       # average WriteReq mshr miss latency
system.cpu.dcache.WriteReq_avg_mshr_miss_latency::total 86212.780799                       # average WriteReq mshr miss latency
system.cpu.dcache.SoftPFReq_hits::.cpu.data          107                       # number of SoftPFReq hits
system.cpu.dcache.SoftPFReq_hits::total           107                       # number of SoftPFReq hits
system.cpu.dcache.SoftPFReq_misses::.cpu.data         1506                       # number of SoftPFReq misses
system.cpu.dcache.SoftPFReq_misses::total         1506                       # number of SoftPFReq misses
system.cpu.dcache.SoftPFReq_accesses::.cpu.data         1613                       # number of SoftPFReq accesses(hits+misses)
system.cpu.dcache.SoftPFReq_accesses::total         1613                       # number of SoftPFReq accesses(hits+misses)
system.cpu.dcache.SoftPFReq_miss_rate::.cpu.data     0.933664                       # miss rate for SoftPFReq accesses
system.cpu.dcache.SoftPFReq_miss_rate::total     0.933664                       # miss rate for SoftPFReq accesses
system.cpu.dcache.SoftPFReq_mshr_misses::.cpu.data         1500                       # number of SoftPFReq MSHR misses
system.cpu.dcache.SoftPFReq_mshr_misses::total         1500                       # number of SoftPFReq MSHR misses
system.cpu.dcache.SoftPFReq_mshr_miss_latency::.cpu.data    112051999                       # number of SoftPFReq MSHR miss cycles
system.cpu.dcache.SoftPFReq_mshr_miss_latency::total    112051999                       # number of SoftPFReq MSHR miss cycles
system.cpu.dcache.SoftPFReq_mshr_miss_rate::.cpu.data     0.929944                       # mshr miss rate for SoftPFReq accesses
system.cpu.dcache.SoftPFReq_mshr_miss_rate::total     0.929944                       # mshr miss rate for SoftPFReq accesses
system.cpu.dcache.SoftPFReq_avg_mshr_miss_latency::.cpu.data 74701.332667                       # average SoftPFReq mshr miss latency
system.cpu.dcache.SoftPFReq_avg_mshr_miss_latency::total 74701.332667                       # average SoftPFReq mshr miss latency
system.cpu.dcache.LoadLockedReq_hits::.cpu.data           38                       # number of LoadLockedReq hits
system.cpu.dcache.LoadLockedReq_hits::total           38                       # number of LoadLockedReq hits
system.cpu.dcache.LoadLockedReq_accesses::.cpu.data           38                       # number of LoadLockedReq accesses(hits+misses)
system.cpu.dcache.LoadLockedReq_accesses::total           38                       # number of LoadLockedReq accesses(hits+misses)
system.cpu.dcache.StoreCondReq_hits::.cpu.data           38                       # number of StoreCondReq hits
system.cpu.dcache.StoreCondReq_hits::total           38                       # number of StoreCondReq hits
system.cpu.dcache.StoreCondReq_accesses::.cpu.data           38                       # number of StoreCondReq accesses(hits+misses)
system.cpu.dcache.StoreCondReq_accesses::total           38                       # number of StoreCondReq accesses(hits+misses)
system.cpu.dcache.tags.pwrStateResidencyTicks::UNDEFINED  13567587500                       # Cumulative time (in ticks) in various power states
system.cpu.dcache.tags.tagsinuse           471.857728                       # Cycle average of tags in use
system.cpu.dcache.tags.total_refs             7108185                       # Total number of references to valid blocks.
system.cpu.dcache.tags.sampled_refs            119910                       # Sample count of references to valid blocks.
system.cpu.dcache.tags.avg_refs             59.279335                       # Average number of references to valid blocks.
system.cpu.dcache.tags.warmup_cycle            176500                       # Cycle when the warmup percentage was hit.
system.cpu.dcache.tags.occ_blocks::.cpu.data   471.857728                       # Average occupied blocks per requestor
system.cpu.dcache.tags.occ_percent::.cpu.data     0.921597                       # Average percentage of cache occupancy
system.cpu.dcache.tags.occ_percent::total     0.921597                       # Average percentage of cache occupancy
system.cpu.dcache.tags.occ_task_id_blocks::1024          512                       # Occupied blocks per task id
system.cpu.dcache.tags.age_task_id_blocks_1024::0            2                       # Occupied blocks per task id
system.cpu.dcache.tags.age_task_id_blocks_1024::1           19                       # Occupied blocks per task id
system.cpu.dcache.tags.age_task_id_blocks_1024::2          315                       # Occupied blocks per task id
system.cpu.dcache.tags.age_task_id_blocks_1024::3          176                       # Occupied blocks per task id
system.cpu.dcache.tags.occ_task_id_percent::1024            1                       # Percentage of cache occupancy per task id
system.cpu.dcache.tags.tag_accesses          28695886                       # Number of tag accesses
system.cpu.dcache.tags.data_accesses         28695886                       # Number of data accesses
system.cpu.itb.walker.pwrStateResidencyTicks::UNDEFINED  13567587500                       # Cumulative time (in ticks) in various power states
system.cpu.itb.stage2_mmu.stage2_tlb.walker.pwrStateResidencyTicks::UNDEFINED  13567587500                       # Cumulative time (in ticks) in various power states

---------- End Simulation Statistics   ----------
