
---------- Begin Simulation Statistics ----------
final_tick                                13591403500                       # Number of ticks from beginning of simulation (restored from checkpoints and never reset)
host_inst_rate                                 240831                       # Simulator instruction rate (inst/s)
host_mem_usage                                 696284                       # Number of bytes of host memory used
host_op_rate                                   241512                       # Simulator op (including micro ops) rate (op/s)
host_seconds                                    41.52                       # Real time elapsed on the host
host_tick_rate                              327322541                       # Simulator tick rate (ticks/s)
sim_freq                                 1000000000000                       # Frequency of simulated ticks
sim_insts                                    10000000                       # Number of instructions simulated
sim_ops                                      10028308                       # Number of ops (including micro ops) simulated
sim_seconds                                  0.013591                       # Number of seconds simulated
sim_ticks                                 13591403500                       # Number of ticks simulated
system.cpu.branchPred.BTBCorrect                    0                       # Number of correct BTB predictions (this stat may not work properly.
system.cpu.branchPred.BTBHitPct             98.804032                       # BTB Hit Percentage
system.cpu.branchPred.BTBHits                  300303                       # Number of BTB hits
system.cpu.branchPred.BTBLookups               303938                       # Number of BTB lookups
system.cpu.branchPred.RASInCorrect                  5                       # Number of incorrect RAS predictions.
system.cpu.branchPred.condIncorrect              7161                       # Number of conditional branches incorrect
system.cpu.branchPred.condPredicted            603859                       # Number of conditional branches predicted
system.cpu.branchPred.indirectHits                127                       # Number of indirect target hits.
system.cpu.branchPred.indirectLookups             398                       # Number of indirect predictor lookups.
system.cpu.branchPred.indirectMisses              271                       # Number of indirect misses.
system.cpu.branchPred.lookups                  716798                       # Number of BP lookups
system.cpu.branchPred.usedRAS                    6950                       # Number of times the RAS was used to get a target.
system.cpu.branchPredindirectMispredicted          171                       # Number of mispredicted indirect branches.
system.cpu.committedInsts                    10000000                       # Number of instructions committed
system.cpu.committedOps                      10028308                       # Number of ops (including micro ops) committed
system.cpu.cpi                               2.718281                       # CPI: cycles per instruction
system.cpu.discardedOps                         15357                       # Number of ops (including micro ops) which were discarded before commit
system.cpu.dtb.accesses                             0                       # DTB accesses
system.cpu.dtb.align_faults                         0                       # Number of TLB faults due to alignment restrictions
system.cpu.dtb.domain_faults                        0                       # Number of TLB faults due to domain restrictions
system.cpu.dtb.flush_entries                        0                       # Number of entries that have been flushed from TLB
system.cpu.dtb.flush_tlb                            0                       # Number of times complete TLB was flushed
system.cpu.dtb.flush_tlb_asid                       0                       # Number of times TLB was flushed by ASID
system.cpu.dtb.flush_tlb_mva                        0                       # Number of times TLB was flushed by MVA
system.cpu.dtb.flush_tlb_mva_asid                   0                       # Number of times TLB was flushed by MVA & ASID
system.cpu.dtb.hits                                 0                       # DTB hits
system.cpu.dtb.inst_accesses                        0                       # ITB inst accesses
system.cpu.dtb.inst_hits                            0                       # ITB inst hits
system.cpu.dtb.inst_misses                          0                       # ITB inst misses
system.cpu.dtb.misses                               0                       # DTB misses
system.cpu.dtb.perms_faults                         0                       # Number of TLB faults due to permissions restrictions
system.cpu.dtb.prefetch_faults                      0                       # Number of TLB faults due to prefetch
system.cpu.dtb.read_accesses                        0                       # DTB read accesses
system.cpu.dtb.read_hits                            0                       # DTB read hits
system.cpu.dtb.read_misses                          0                       # DTB read misses
system.cpu.dtb.stage2_mmu.stage2_tlb.accesses            0                       # DTB accesses
system.cpu.dtb.stage2_mmu.stage2_tlb.align_faults            0                       # Number of TLB faults due to alignment restrictions
system.cpu.dtb.stage2_mmu.stage2_tlb.domain_faults            0                       # Number of TLB faults due to domain restrictions
system.cpu.dtb.stage2_mmu.stage2_tlb.flush_entries            0                       # Number of entries that have been flushed from TLB
system.cpu.dtb.stage2_mmu.stage2_tlb.flush_tlb            0                       # Number of times complete TLB was flushed
system.cpu.dtb.stage2_mmu.stage2_tlb.flush_tlb_asid            0                       # Number of times TLB was flushed by ASID
system.cpu.dtb.stage2_mmu.stage2_tlb.flush_tlb_mva            0                       # Number of times TLB was flushed by MVA
system.cpu.dtb.stage2_mmu.stage2_tlb.flush_tlb_mva_asid            0                       # Number of times TLB was flushed by MVA & ASID
system.cpu.dtb.stage2_mmu.stage2_tlb.hits            0                       # DTB hits
system.cpu.dtb.stage2_mmu.stage2_tlb.inst_accesses            0                       # ITB inst accesses
system.cpu.dtb.stage2_mmu.stage2_tlb.inst_hits            0                       # ITB inst hits
system.cpu.dtb.stage2_mmu.stage2_tlb.inst_misses            0                       # ITB inst misses
system.cpu.dtb.stage2_mmu.stage2_tlb.misses            0                       # DTB misses
system.cpu.dtb.stage2_mmu.stage2_tlb.perms_faults            0                       # Number of TLB faults due to permissions restrictions
system.cpu.dtb.stage2_mmu.stage2_tlb.prefetch_faults            0                       # Number of TLB faults due to prefetch
system.cpu.dtb.stage2_mmu.stage2_tlb.read_accesses            0                       # DTB read accesses
system.cpu.dtb.stage2_mmu.stage2_tlb.read_hits            0                       # DTB read hits
system.cpu.dtb.stage2_mmu.stage2_tlb.read_misses            0                       # DTB read misses
system.cpu.dtb.stage2_mmu.stage2_tlb.walker.walkRequestOrigin_Requested::Data            0                       # Table walker requests started/completed, data/inst
system.cpu.dtb.stage2_mmu.stage2_tlb.walker.walkRequestOrigin_Requested::Inst            0                       # Table walker requests started/completed, data/inst
system.cpu.dtb.stage2_mmu.stage2_tlb.walker.walkRequestOrigin_Requested::total            0                       # Table walker requests started/completed, data/inst
system.cpu.dtb.stage2_mmu.stage2_tlb.walker.walkRequestOrigin_Completed::Data            0                       # Table walker requests started/completed, data/inst
system.cpu.dtb.stage2_mmu.stage2_tlb.walker.walkRequestOrigin_Completed::Inst            0                       # Table walker requests started/completed, data/inst
system.cpu.dtb.stage2_mmu.stage2_tlb.walker.walkRequestOrigin_Completed::total            0                       # Table walker requests started/completed, data/inst
system.cpu.dtb.stage2_mmu.stage2_tlb.walker.walkRequestOrigin::total            0                       # Table walker requests started/completed, data/inst
system.cpu.dtb.stage2_mmu.stage2_tlb.walker.walks            0                       # Table walker walks requested
system.cpu.dtb.stage2_mmu.stage2_tlb.write_accesses            0                       # DTB write accesses
system.cpu.dtb.stage2_mmu.stage2_tlb.write_hits            0                       # DTB write hits
system.cpu.dtb.stage2_mmu.stage2_tlb.write_misses            0                       # DTB write misses
system.cpu.dtb.walker.walkRequestOrigin_Requested::Data            0                       # Table walker requests started/completed, data/inst
system.cpu.dtb.walker.walkRequestOrigin_Requested::Inst            0                       # Table walker requests started/completed, data/inst
system.cpu.dtb.walker.walkRequestOrigin_Requested::total            0                       # Table walker requests started/completed, data/inst
system.cpu.dtb.walker.walkRequestOrigin_Completed::Data            0                       # Table walker requests started/completed, data/inst
system.cpu.dtb.walker.walkRequestOrigin_Completed::Inst            0                       # Table walker requests started/completed, data/inst
system.cpu.dtb.walker.walkRequestOrigin_Completed::total            0                       # Table walker requests started/completed, data/inst
system.cpu.dtb.walker.walkRequestOrigin::total            0                       # Table walker requests started/completed, data/inst
system.cpu.dtb.walker.walks                         0                       # Table walker walks requested
system.cpu.dtb.write_accesses                       0                       # DTB write accesses
system.cpu.dtb.write_hits                           0                       # DTB write hits
system.cpu.dtb.write_misses                         0                       # DTB write misses
system.cpu.fetch2.amo_instructions                  0                       # Number of memory atomic instructions successfully decoded
system.cpu.fetch2.fp_instructions                   0                       # Number of floating point instructions successfully decoded
system.cpu.fetch2.int_instructions            2169328                       # Number of integer instructions successfully decoded
system.cpu.fetch2.load_instructions           5801052                       # Number of memory load instructions successfully decoded
system.cpu.fetch2.store_instructions          1454398                       # Number of memory store instructions successfully decoded
system.cpu.fetch2.vec_instructions                  0                       # Number of SIMD instructions successfully decoded
system.cpu.idleCycles                        12680871                       # Total number of cycles that the object has spent stopped
system.cpu.ipc                               0.367880                       # IPC: instructions per cycle
system.cpu.itb.accesses                             0                       # DTB accesses
system.cpu.itb.align_faults                         0                       # Number of TLB faults due to alignment restrictions
system.cpu.itb.domain_faults                        0                       # Number of TLB faults due to domain restrictions
system.cpu.itb.flush_entries                        0                       # Number of entries that have been flushed from TLB
system.cpu.itb.flush_tlb                            0                       # Number of times complete TLB was flushed
system.cpu.itb.flush_tlb_asid                       0                       # Number of times TLB was flushed by ASID
system.cpu.itb.flush_tlb_mva                        0                       # Number of times TLB was flushed by MVA
system.cpu.itb.flush_tlb_mva_asid                   0                       # Number of times TLB was flushed by MVA & ASID
system.cpu.itb.hits                                 0                       # DTB hits
system.cpu.itb.inst_accesses                        0                       # ITB inst accesses
system.cpu.itb.inst_hits                            0                       # ITB inst hits
system.cpu.itb.inst_misses                          0                       # ITB inst misses
system.cpu.itb.misses                               0                       # DTB misses
system.cpu.itb.perms_faults                         0                       # Number of TLB faults due to permissions restrictions
system.cpu.itb.prefetch_faults                      0                       # Number of TLB faults due to prefetch
system.cpu.itb.read_accesses                        0                       # DTB read accesses
system.cpu.itb.read_hits                            0                       # DTB read hits
system.cpu.itb.read_misses                          0                       # DTB read misses
system.cpu.itb.stage2_mmu.stage2_tlb.accesses            0                       # DTB accesses
system.cpu.itb.stage2_mmu.stage2_tlb.align_faults            0                       # Number of TLB faults due to alignment restrictions
system.cpu.itb.stage2_mmu.stage2_tlb.domain_faults            0                       # Number of TLB faults due to domain restrictions
system.cpu.itb.stage2_mmu.stage2_tlb.flush_entries            0                       # Number of entries that have been flushed from TLB
system.cpu.itb.stage2_mmu.stage2_tlb.flush_tlb            0                       # Number of times complete TLB was flushed
system.cpu.itb.stage2_mmu.stage2_tlb.flush_tlb_asid            0                       # Number of times TLB was flushed by ASID
system.cpu.itb.stage2_mmu.stage2_tlb.flush_tlb_mva            0                       # Number of times TLB was flushed by MVA
system.cpu.itb.stage2_mmu.stage2_tlb.flush_tlb_mva_asid            0                       # Number of times TLB was flushed by MVA & ASID
system.cpu.itb.stage2_mmu.stage2_tlb.hits            0                       # DTB hits
system.cpu.itb.stage2_mmu.stage2_tlb.inst_accesses            0                       # ITB inst accesses
system.cpu.itb.stage2_mmu.stage2_tlb.inst_hits            0                       # ITB inst hits
system.cpu.itb.stage2_mmu.stage2_tlb.inst_misses            0                       # ITB inst misses
system.cpu.itb.stage2_mmu.stage2_tlb.misses            0                       # DTB misses
system.cpu.itb.stage2_mmu.stage2_tlb.perms_faults            0                       # Number of TLB faults due to permissions restrictions
system.cpu.itb.stage2_mmu.stage2_tlb.prefetch_faults            0                       # Number of TLB faults due to prefetch
system.cpu.itb.stage2_mmu.stage2_tlb.read_accesses            0                       # DTB read accesses
system.cpu.itb.stage2_mmu.stage2_tlb.read_hits            0                       # DTB read hits
system.cpu.itb.stage2_mmu.stage2_tlb.read_misses            0                       # DTB read misses
system.cpu.itb.stage2_mmu.stage2_tlb.walker.walkRequestOrigin_Requested::Data            0                       # Table walker requests started/completed, data/inst
system.cpu.itb.stage2_mmu.stage2_tlb.walker.walkRequestOrigin_Requested::Inst            0                       # Table walker requests started/completed, data/inst
system.cpu.itb.stage2_mmu.stage2_tlb.walker.walkRequestOrigin_Requested::total            0                       # Table walker requests started/completed, data/inst
system.cpu.itb.stage2_mmu.stage2_tlb.walker.walkRequestOrigin_Completed::Data            0                       # Table walker requests started/completed, data/inst
system.cpu.itb.stage2_mmu.stage2_tlb.walker.walkRequestOrigin_Completed::Inst            0                       # Table walker requests started/completed, data/inst
system.cpu.itb.stage2_mmu.stage2_tlb.walker.walkRequestOrigin_Completed::total            0                       # Table walker requests started/completed, data/inst
system.cpu.itb.stage2_mmu.stage2_tlb.walker.walkRequestOrigin::total            0                       # Table walker requests started/completed, data/inst
system.cpu.itb.stage2_mmu.stage2_tlb.walker.walks            0                       # Table walker walks requested
system.cpu.itb.stage2_mmu.stage2_tlb.write_accesses            0                       # DTB write accesses
system.cpu.itb.stage2_mmu.stage2_tlb.write_hits            0                       # DTB write hits
system.cpu.itb.stage2_mmu.stage2_tlb.write_misses            0                       # DTB write misses
system.cpu.itb.walker.walkRequestOrigin_Requested::Data            0                       # Table walker requests started/completed, data/inst
system.cpu.itb.walker.walkRequestOrigin_Requested::Inst            0                       # Table walker requests started/completed, data/inst
system.cpu.itb.walker.walkRequestOrigin_Requested::total            0                       # Table walker requests started/completed, data/inst
system.cpu.itb.walker.walkRequestOrigin_Completed::Data            0                       # Table walker requests started/completed, data/inst
system.cpu.itb.walker.walkRequestOrigin_Completed::Inst            0                       # Table walker requests started/completed, data/inst
system.cpu.itb.walker.walkRequestOrigin_Completed::total            0                       # Table walker requests started/completed, data/inst
system.cpu.itb.walker.walkRequestOrigin::total            0                       # Table walker requests started/completed, data/inst
system.cpu.itb.walker.walks                         0                       # Table walker walks requested
system.cpu.itb.write_accesses                       0                       # DTB write accesses
system.cpu.itb.write_hits                           0                       # DTB write hits
system.cpu.itb.write_misses                         0                       # DTB write misses
system.cpu.numCycles                         27182807                       # number of cpu cycles simulated
system.cpu.numFetchSuspends                         0                       # Number of times Execute suspended instruction fetching
system.cpu.numWorkItemsCompleted                    0                       # number of work items this cpu completed
system.cpu.numWorkItemsStarted                      0                       # number of work items this cpu started
system.cpu.op_class_0::No_OpClass                   0      0.00%      0.00% # Class of committed instruction
system.cpu.op_class_0::IntAlu                 2830128     28.22%     28.22% # Class of committed instruction
system.cpu.op_class_0::IntMult                  20549      0.20%     28.43% # Class of committed instruction
system.cpu.op_class_0::IntDiv                       0      0.00%     28.43% # Class of committed instruction
system.cpu.op_class_0::FloatAdd                     0      0.00%     28.43% # Class of committed instruction
system.cpu.op_class_0::FloatCmp                     0      0.00%     28.43% # Class of committed instruction
system.cpu.op_class_0::FloatCvt                     0      0.00%     28.43% # Class of committed instruction
system.cpu.op_class_0::FloatMult                    0      0.00%     28.43% # Class of committed instruction
system.cpu.op_class_0::FloatMultAcc                 0      0.00%     28.43% # Class of committed instruction
system.cpu.op_class_0::FloatDiv                     0      0.00%     28.43% # Class of committed instruction
system.cpu.op_class_0::FloatMisc                    0      0.00%     28.43% # Class of committed instruction
system.cpu.op_class_0::FloatSqrt                    0      0.00%     28.43% # Class of committed instruction
system.cpu.op_class_0::SimdAdd                      0      0.00%     28.43% # Class of committed instruction
system.cpu.op_class_0::SimdAddAcc                   0      0.00%     28.43% # Class of committed instruction
system.cpu.op_class_0::SimdAlu                      0      0.00%     28.43% # Class of committed instruction
system.cpu.op_class_0::SimdCmp                      0      0.00%     28.43% # Class of committed instruction
system.cpu.op_class_0::SimdCvt                      0      0.00%     28.43% # Class of committed instruction
system.cpu.op_class_0::SimdMisc                     0      0.00%     28.43% # Class of committed instruction
system.cpu.op_class_0::SimdMult                     0      0.00%     28.43% # Class of committed instruction
system.cpu.op_class_0::SimdMultAcc                  0      0.00%     28.43% # Class of committed instruction
system.cpu.op_class_0::SimdShift                    0      0.00%     28.43% # Class of committed instruction
system.cpu.op_class_0::SimdShiftAcc                 0      0.00%     28.43% # Class of committed instruction
system.cpu.op_class_0::SimdDiv                      0      0.00%     28.43% # Class of committed instruction
system.cpu.op_class_0::SimdSqrt                     0      0.00%     28.43% # Class of committed instruction
system.cpu.op_class_0::SimdFloatAdd                 0      0.00%     28.43% # Class of committed instruction
system.cpu.op_class_0::SimdFloatAlu                 0      0.00%     28.43% # Class of committed instruction
system.cpu.op_class_0::SimdFloatCmp                 0      0.00%     28.43% # Class of committed instruction
system.cpu.op_class_0::SimdFloatCvt                 0      0.00%     28.43% # Class of committed instruction
system.cpu.op_class_0::SimdFloatDiv                 0      0.00%     28.43% # Class of committed instruction
system.cpu.op_class_0::SimdFloatMisc               18      0.00%     28.43% # Class of committed instruction
system.cpu.op_class_0::SimdFloatMult                0      0.00%     28.43% # Class of committed instruction
system.cpu.op_class_0::SimdFloatMultAcc             0      0.00%     28.43% # Class of committed instruction
system.cpu.op_class_0::SimdFloatSqrt                0      0.00%     28.43% # Class of committed instruction
system.cpu.op_class_0::SimdReduceAdd                0      0.00%     28.43% # Class of committed instruction
system.cpu.op_class_0::SimdReduceAlu                0      0.00%     28.43% # Class of committed instruction
system.cpu.op_class_0::SimdReduceCmp                0      0.00%     28.43% # Class of committed instruction
system.cpu.op_class_0::SimdFloatReduceAdd            0      0.00%     28.43% # Class of committed instruction
system.cpu.op_class_0::SimdFloatReduceCmp            0      0.00%     28.43% # Class of committed instruction
system.cpu.op_class_0::SimdAes                      0      0.00%     28.43% # Class of committed instruction
system.cpu.op_class_0::SimdAesMix                   0      0.00%     28.43% # Class of committed instruction
system.cpu.op_class_0::SimdSha1Hash                 0      0.00%     28.43% # Class of committed instruction
system.cpu.op_class_0::SimdSha1Hash2                0      0.00%     28.43% # Class of committed instruction
system.cpu.op_class_0::SimdSha256Hash               0      0.00%     28.43% # Class of committed instruction
system.cpu.op_class_0::SimdSha256Hash2              0      0.00%     28.43% # Class of committed instruction
system.cpu.op_class_0::SimdShaSigma2                0      0.00%     28.43% # Class of committed instruction
system.cpu.op_class_0::SimdShaSigma3                0      0.00%     28.43% # Class of committed instruction
system.cpu.op_class_0::SimdPredAlu                  0      0.00%     28.43% # Class of committed instruction
system.cpu.op_class_0::MemRead                5721911     57.06%     85.48% # Class of committed instruction
system.cpu.op_class_0::MemWrite               1455702     14.52%    100.00% # Class of committed instruction
system.cpu.op_class_0::FloatMemRead                 0      0.00%    100.00% # Class of committed instruction
system.cpu.op_class_0::FloatMemWrite                0      0.00%    100.00% # Class of committed instruction
system.cpu.op_class_0::IprAccess                    0      0.00%    100.00% # Class of committed instruction
system.cpu.op_class_0::InstPrefetch                 0      0.00%    100.00% # Class of committed instruction
system.cpu.op_class_0::total                 10028308                       # Class of committed instruction
system.cpu.tickCycles                        14501936                       # Number of cycles that the object actually ticked
system.cpu.workload.numSyscalls                    84                       # Number of system calls
system.membus.snoop_filter.hit_multi_requests            0                       # Number of requests hitting in the snoop filter with multiple (>1) holders of the requested data.
system.membus.snoop_filter.hit_multi_snoops            0                       # Number of snoops hitting in the snoop filter with multiple (>1) holders of the requested data.
system.membus.snoop_filter.hit_single_requests       111601                       # Number of requests hitting in the snoop filter with a single holder of the requested data.
system.membus.snoop_filter.hit_single_snoops            0                       # Number of snoops hitting in the snoop filter with a single holder of the requested data.
system.membus.snoop_filter.tot_requests        231795                       # Total number of requests made to the snoop filter.
system.membus.snoop_filter.tot_snoops               0                       # Total number of snoops made to the snoop filter.
system.tol2bus.snoop_filter.hit_multi_requests           36                       # Number of requests hitting in the snoop filter with multiple (>1) holders of the requested data.
system.tol2bus.snoop_filter.hit_multi_snoops            0                       # Number of snoops hitting in the snoop filter with multiple (>1) holders of the requested data.
system.tol2bus.snoop_filter.hit_single_requests       117885                       # Number of requests hitting in the snoop filter with a single holder of the requested data.
system.tol2bus.snoop_filter.hit_single_snoops          439                       # Number of snoops hitting in the snoop filter with a single holder of the requested data.
system.tol2bus.snoop_filter.tot_requests       238307                       # Total number of requests made to the snoop filter.
system.tol2bus.snoop_filter.tot_snoops            439                       # Total number of snoops made to the snoop filter.
system.membus.pwrStateResidencyTicks::UNDEFINED  13591403500                       # Cumulative time (in ticks) in various power states
system.membus.trans_dist::ReadResp              49959                       # Transaction distribution
system.membus.trans_dist::WritebackDirty        68649                       # Transaction distribution
system.membus.trans_dist::CleanEvict            42941                       # Transaction distribution
system.membus.trans_dist::ReadExReq             70246                       # Transaction distribution
system.membus.trans_dist::ReadExResp            70246                       # Transaction distribution
system.membus.trans_dist::ReadSharedReq         49959                       # Transaction distribution
system.membus.pkt_count_system.l2.mem_side::system.mem_ctrls.port       352000                       # Packet count per connected master and slave (bytes)
system.membus.pkt_count::total                 352000                       # Packet count per connected master and slave (bytes)
system.membus.pkt_size_system.l2.mem_side::system.mem_ctrls.port     12086656                       # Cumulative packet size per connected master and slave (bytes)
system.membus.pkt_size::total                12086656                       # Cumulative packet size per connected master and slave (bytes)
system.membus.snoops                                0                       # Total snoops (count)
system.membus.snoopTraffic                          0                       # Total snoop traffic (bytes)
system.membus.snoop_fanout::samples            120205                       # Request fanout histogram
system.membus.snoop_fanout::mean                    0                       # Request fanout histogram
system.membus.snoop_fanout::stdev                   0                       # Request fanout histogram
system.membus.snoop_fanout::underflows              0      0.00%      0.00% # Request fanout histogram
system.membus.snoop_fanout::0                  120205    100.00%    100.00% # Request fanout histogram
system.membus.snoop_fanout::1                       0      0.00%    100.00% # Request fanout histogram
system.membus.snoop_fanout::overflows               0      0.00%    100.00% # Request fanout histogram
system.membus.snoop_fanout::min_value               0                       # Request fanout histogram
system.membus.snoop_fanout::max_value               0                       # Request fanout histogram
system.membus.snoop_fanout::total              120205                       # Request fanout histogram
system.membus.respLayer1.occupancy          642202250                       # Layer occupancy (ticks)
system.membus.respLayer1.utilization              4.7                       # Layer utilization (%)
system.membus.reqLayer0.occupancy           524190500                       # Layer occupancy (ticks)
system.membus.reqLayer0.utilization               3.9                       # Layer utilization (%)
system.tol2bus.pwrStateResidencyTicks::UNDEFINED  13591403500                       # Cumulative time (in ticks) in various power states
system.tol2bus.trans_dist::ReadResp             50184                       # Transaction distribution
system.tol2bus.trans_dist::WritebackDirty       137837                       # Transaction distribution
system.tol2bus.trans_dist::WritebackClean           30                       # Transaction distribution
system.tol2bus.trans_dist::CleanEvict           92039                       # Transaction distribution
system.tol2bus.trans_dist::ReadExReq            70246                       # Transaction distribution
system.tol2bus.trans_dist::ReadExResp           70246                       # Transaction distribution
system.tol2bus.trans_dist::ReadCleanReq           535                       # Transaction distribution
system.tol2bus.trans_dist::ReadSharedReq        49649                       # Transaction distribution
system.tol2bus.pkt_count_system.cpu.icache.mem_side::system.l2.cpu_side         1100                       # Packet count per connected master and slave (bytes)
system.tol2bus.pkt_count_system.cpu.dcache.mem_side::system.l2.cpu_side       357637                       # Packet count per connected master and slave (bytes)
system.tol2bus.pkt_count::total                358737                       # Packet count per connected master and slave (bytes)
system.tol2bus.pkt_size_system.cpu.icache.mem_side::system.l2.cpu_side        36160                       # Cumulative packet size per connected master and slave (bytes)
system.tol2bus.pkt_size_system.cpu.dcache.mem_side::system.l2.cpu_side     12101312                       # Cumulative packet size per connected master and slave (bytes)
system.tol2bus.pkt_size::total               12137472                       # Cumulative packet size per connected master and slave (bytes)
system.tol2bus.snoops                          112029                       # Total snoops (count)
system.tol2bus.snoopTraffic                   4393536                       # Total snoop traffic (bytes)
system.tol2bus.snoop_fanout::samples           232459                       # Request fanout histogram
system.tol2bus.snoop_fanout::mean            0.002078                       # Request fanout histogram
system.tol2bus.snoop_fanout::stdev           0.045535                       # Request fanout histogram
system.tol2bus.snoop_fanout::underflows             0      0.00%      0.00% # Request fanout histogram
system.tol2bus.snoop_fanout::0                 231976     99.79%     99.79% # Request fanout histogram
system.tol2bus.snoop_fanout::1                    483      0.21%    100.00% # Request fanout histogram
system.tol2bus.snoop_fanout::2                      0      0.00%    100.00% # Request fanout histogram
system.tol2bus.snoop_fanout::overflows              0      0.00%    100.00% # Request fanout histogram
system.tol2bus.snoop_fanout::min_value              0                       # Request fanout histogram
system.tol2bus.snoop_fanout::max_value              1                       # Request fanout histogram
system.tol2bus.snoop_fanout::total             232459                       # Request fanout histogram
system.tol2bus.reqLayer0.occupancy          188371500                       # Layer occupancy (ticks)
system.tol2bus.reqLayer0.utilization              1.4                       # Layer utilization (%)
system.tol2bus.respLayer1.occupancy         179843997                       # Layer occupancy (ticks)
system.tol2bus.respLayer1.utilization             1.3                       # Layer utilization (%)
system.tol2bus.respLayer0.occupancy            802500                       # Layer occupancy (ticks)
system.tol2bus.respLayer0.utilization             0.0                       # Layer utilization (%)
system.voltage_domain.voltage                       1                       # Voltage in Volts
system.clk_domain.clock                          1000                       # Clock period in ticks
system.l2.pwrStateResidencyTicks::UNDEFINED  13591403500                       # Cumulative time (in ticks) in various power states
system.l2.demand_hits::.cpu.inst                   17                       # number of demand (read+write) hits
system.l2.demand_hits::.cpu.data                  205                       # number of demand (read+write) hits
system.l2.demand_hits::total                      222                       # number of demand (read+write) hits
system.l2.overall_hits::.cpu.inst                  17                       # number of overall hits
system.l2.overall_hits::.cpu.data                 205                       # number of overall hits
system.l2.overall_hits::total                     222                       # number of overall hits
system.l2.demand_misses::.cpu.inst                518                       # number of demand (read+write) misses
system.l2.demand_misses::.cpu.data             119690                       # number of demand (read+write) misses
system.l2.demand_misses::total                 120208                       # number of demand (read+write) misses
system.l2.overall_misses::.cpu.inst               518                       # number of overall misses
system.l2.overall_misses::.cpu.data            119690                       # number of overall misses
system.l2.overall_misses::total                120208                       # number of overall misses
system.l2.demand_miss_latency::.cpu.inst     39951500                       # number of demand (read+write) miss cycles
system.l2.demand_miss_latency::.cpu.data   9913908000                       # number of demand (read+write) miss cycles
system.l2.demand_miss_latency::total       9953859500                       # number of demand (read+write) miss cycles
system.l2.overall_miss_latency::.cpu.inst     39951500                       # number of overall miss cycles
system.l2.overall_miss_latency::.cpu.data   9913908000                       # number of overall miss cycles
system.l2.overall_miss_latency::total      9953859500                       # number of overall miss cycles
system.l2.demand_accesses::.cpu.inst              535                       # number of demand (read+write) accesses
system.l2.demand_accesses::.cpu.data           119895                       # number of demand (read+write) accesses
system.l2.demand_accesses::total               120430                       # number of demand (read+write) accesses
system.l2.overall_accesses::.cpu.inst             535                       # number of overall (read+write) accesses
system.l2.overall_accesses::.cpu.data          119895                       # number of overall (read+write) accesses
system.l2.overall_accesses::total              120430                       # number of overall (read+write) accesses
system.l2.demand_miss_rate::.cpu.inst        0.968224                       # miss rate for demand accesses
system.l2.demand_miss_rate::.cpu.data        0.998290                       # miss rate for demand accesses
system.l2.demand_miss_rate::total            0.998157                       # miss rate for demand accesses
system.l2.overall_miss_rate::.cpu.inst       0.968224                       # miss rate for overall accesses
system.l2.overall_miss_rate::.cpu.data       0.998290                       # miss rate for overall accesses
system.l2.overall_miss_rate::total           0.998157                       # miss rate for overall accesses
system.l2.demand_avg_miss_latency::.cpu.inst 77126.447876                       # average overall miss latency
system.l2.demand_avg_miss_latency::.cpu.data 82829.877183                       # average overall miss latency
system.l2.demand_avg_miss_latency::total 82805.299980                       # average overall miss latency
system.l2.overall_avg_miss_latency::.cpu.inst 77126.447876                       # average overall miss latency
system.l2.overall_avg_miss_latency::.cpu.data 82829.877183                       # average overall miss latency
system.l2.overall_avg_miss_latency::total 82805.299980                       # average overall miss latency
system.l2.blocked_cycles::no_mshrs                  0                       # number of cycles access was blocked
system.l2.blocked_cycles::no_targets                0                       # number of cycles access was blocked
system.l2.blocked::no_mshrs                         0                       # number of cycles access was blocked
system.l2.blocked::no_targets                       0                       # number of cycles access was blocked
system.l2.avg_blocked_cycles::no_mshrs            nan                       # average number of cycles each access was blocked
system.l2.avg_blocked_cycles::no_targets          nan                       # average number of cycles each access was blocked
system.l2.writebacks::.writebacks               68649                       # number of writebacks
system.l2.writebacks::total                     68649                       # number of writebacks
system.l2.demand_mshr_hits::.cpu.data               3                       # number of demand (read+write) MSHR hits
system.l2.demand_mshr_hits::total                   3                       # number of demand (read+write) MSHR hits
system.l2.overall_mshr_hits::.cpu.data              3                       # number of overall MSHR hits
system.l2.overall_mshr_hits::total                  3                       # number of overall MSHR hits
system.l2.demand_mshr_misses::.cpu.inst           518                       # number of demand (read+write) MSHR misses
system.l2.demand_mshr_misses::.cpu.data        119687                       # number of demand (read+write) MSHR misses
system.l2.demand_mshr_misses::total            120205                       # number of demand (read+write) MSHR misses
system.l2.overall_mshr_misses::.cpu.inst          518                       # number of overall MSHR misses
system.l2.overall_mshr_misses::.cpu.data       119687                       # number of overall MSHR misses
system.l2.overall_mshr_misses::total           120205                       # number of overall MSHR misses
system.l2.demand_mshr_miss_latency::.cpu.inst     34771500                       # number of demand (read+write) MSHR miss cycles
system.l2.demand_mshr_miss_latency::.cpu.data   8716840000                       # number of demand (read+write) MSHR miss cycles
system.l2.demand_mshr_miss_latency::total   8751611500                       # number of demand (read+write) MSHR miss cycles
system.l2.overall_mshr_miss_latency::.cpu.inst     34771500                       # number of overall MSHR miss cycles
system.l2.overall_mshr_miss_latency::.cpu.data   8716840000                       # number of overall MSHR miss cycles
system.l2.overall_mshr_miss_latency::total   8751611500                       # number of overall MSHR miss cycles
system.l2.demand_mshr_miss_rate::.cpu.inst     0.968224                       # mshr miss rate for demand accesses
system.l2.demand_mshr_miss_rate::.cpu.data     0.998265                       # mshr miss rate for demand accesses
system.l2.demand_mshr_miss_rate::total       0.998132                       # mshr miss rate for demand accesses
system.l2.overall_mshr_miss_rate::.cpu.inst     0.968224                       # mshr miss rate for overall accesses
system.l2.overall_mshr_miss_rate::.cpu.data     0.998265                       # mshr miss rate for overall accesses
system.l2.overall_mshr_miss_rate::total      0.998132                       # mshr miss rate for overall accesses
system.l2.demand_avg_mshr_miss_latency::.cpu.inst 67126.447876                       # average overall mshr miss latency
system.l2.demand_avg_mshr_miss_latency::.cpu.data 72830.299030                       # average overall mshr miss latency
system.l2.demand_avg_mshr_miss_latency::total 72805.719396                       # average overall mshr miss latency
system.l2.overall_avg_mshr_miss_latency::.cpu.inst 67126.447876                       # average overall mshr miss latency
system.l2.overall_avg_mshr_miss_latency::.cpu.data 72830.299030                       # average overall mshr miss latency
system.l2.overall_avg_mshr_miss_latency::total 72805.719396                       # average overall mshr miss latency
system.l2.replacements                         112029                       # number of replacements
system.l2.WritebackDirty_hits::.writebacks        69188                       # number of WritebackDirty hits
system.l2.WritebackDirty_hits::total            69188                       # number of WritebackDirty hits
system.l2.WritebackDirty_accesses::.writebacks        69188                       # number of WritebackDirty accesses(hits+misses)
system.l2.WritebackDirty_accesses::total        69188                       # number of WritebackDirty accesses(hits+misses)
system.l2.WritebackClean_hits::.writebacks           30                       # number of WritebackClean hits
system.l2.WritebackClean_hits::total               30                       # number of WritebackClean hits
system.l2.WritebackClean_accesses::.writebacks           30                       # number of WritebackClean accesses(hits+misses)
system.l2.WritebackClean_accesses::total           30                       # number of WritebackClean accesses(hits+misses)
system.l2.ReadExReq_misses::.cpu.data           70246                       # number of ReadExReq misses
system.l2.ReadExReq_misses::total               70246                       # number of ReadExReq misses
system.l2.ReadExReq_miss_latency::.cpu.data   6072485000                       # number of ReadExReq miss cycles
system.l2.ReadExReq_miss_latency::total    6072485000                       # number of ReadExReq miss cycles
system.l2.ReadExReq_accesses::.cpu.data         70246                       # number of ReadExReq accesses(hits+misses)
system.l2.ReadExReq_accesses::total             70246                       # number of ReadExReq accesses(hits+misses)
system.l2.ReadExReq_miss_rate::.cpu.data            1                       # miss rate for ReadExReq accesses
system.l2.ReadExReq_miss_rate::total                1                       # miss rate for ReadExReq accesses
system.l2.ReadExReq_avg_miss_latency::.cpu.data 86445.989807                       # average ReadExReq miss latency
system.l2.ReadExReq_avg_miss_latency::total 86445.989807                       # average ReadExReq miss latency
system.l2.ReadExReq_mshr_misses::.cpu.data        70246                       # number of ReadExReq MSHR misses
system.l2.ReadExReq_mshr_misses::total          70246                       # number of ReadExReq MSHR misses
system.l2.ReadExReq_mshr_miss_latency::.cpu.data   5370025000                       # number of ReadExReq MSHR miss cycles
system.l2.ReadExReq_mshr_miss_latency::total   5370025000                       # number of ReadExReq MSHR miss cycles
system.l2.ReadExReq_mshr_miss_rate::.cpu.data            1                       # mshr miss rate for ReadExReq accesses
system.l2.ReadExReq_mshr_miss_rate::total            1                       # mshr miss rate for ReadExReq accesses
system.l2.ReadExReq_avg_mshr_miss_latency::.cpu.data 76445.989807                       # average ReadExReq mshr miss latency
system.l2.ReadExReq_avg_mshr_miss_latency::total 76445.989807                       # average ReadExReq mshr miss latency
system.l2.ReadCleanReq_hits::.cpu.inst             17                       # number of ReadCleanReq hits
system.l2.ReadCleanReq_hits::total                 17                       # number of ReadCleanReq hits
system.l2.ReadCleanReq_misses::.cpu.inst          518                       # number of ReadCleanReq misses
system.l2.ReadCleanReq_misses::total              518                       # number of ReadCleanReq misses
system.l2.ReadCleanReq_miss_latency::.cpu.inst     39951500                       # number of ReadCleanReq miss cycles
system.l2.ReadCleanReq_miss_latency::total     39951500                       # number of ReadCleanReq miss cycles
system.l2.ReadCleanReq_accesses::.cpu.inst          535                       # number of ReadCleanReq accesses(hits+misses)
system.l2.ReadCleanReq_accesses::total            535                       # number of ReadCleanReq accesses(hits+misses)
system.l2.ReadCleanReq_miss_rate::.cpu.inst     0.968224                       # miss rate for ReadCleanReq accesses
system.l2.ReadCleanReq_miss_rate::total      0.968224                       # miss rate for ReadCleanReq accesses
system.l2.ReadCleanReq_avg_miss_latency::.cpu.inst 77126.447876                       # average ReadCleanReq miss latency
system.l2.ReadCleanReq_avg_miss_latency::total 77126.447876                       # average ReadCleanReq miss latency
system.l2.ReadCleanReq_mshr_misses::.cpu.inst          518                       # number of ReadCleanReq MSHR misses
system.l2.ReadCleanReq_mshr_misses::total          518                       # number of ReadCleanReq MSHR misses
system.l2.ReadCleanReq_mshr_miss_latency::.cpu.inst     34771500                       # number of ReadCleanReq MSHR miss cycles
system.l2.ReadCleanReq_mshr_miss_latency::total     34771500                       # number of ReadCleanReq MSHR miss cycles
system.l2.ReadCleanReq_mshr_miss_rate::.cpu.inst     0.968224                       # mshr miss rate for ReadCleanReq accesses
system.l2.ReadCleanReq_mshr_miss_rate::total     0.968224                       # mshr miss rate for ReadCleanReq accesses
system.l2.ReadCleanReq_avg_mshr_miss_latency::.cpu.inst 67126.447876                       # average ReadCleanReq mshr miss latency
system.l2.ReadCleanReq_avg_mshr_miss_latency::total 67126.447876                       # average ReadCleanReq mshr miss latency
system.l2.ReadSharedReq_hits::.cpu.data           205                       # number of ReadSharedReq hits
system.l2.ReadSharedReq_hits::total               205                       # number of ReadSharedReq hits
system.l2.ReadSharedReq_misses::.cpu.data        49444                       # number of ReadSharedReq misses
system.l2.ReadSharedReq_misses::total           49444                       # number of ReadSharedReq misses
system.l2.ReadSharedReq_miss_latency::.cpu.data   3841423000                       # number of ReadSharedReq miss cycles
system.l2.ReadSharedReq_miss_latency::total   3841423000                       # number of ReadSharedReq miss cycles
system.l2.ReadSharedReq_accesses::.cpu.data        49649                       # number of ReadSharedReq accesses(hits+misses)
system.l2.ReadSharedReq_accesses::total         49649                       # number of ReadSharedReq accesses(hits+misses)
system.l2.ReadSharedReq_miss_rate::.cpu.data     0.995871                       # miss rate for ReadSharedReq accesses
system.l2.ReadSharedReq_miss_rate::total     0.995871                       # miss rate for ReadSharedReq accesses
system.l2.ReadSharedReq_avg_miss_latency::.cpu.data 77692.399482                       # average ReadSharedReq miss latency
system.l2.ReadSharedReq_avg_miss_latency::total 77692.399482                       # average ReadSharedReq miss latency
system.l2.ReadSharedReq_mshr_hits::.cpu.data            3                       # number of ReadSharedReq MSHR hits
system.l2.ReadSharedReq_mshr_hits::total            3                       # number of ReadSharedReq MSHR hits
system.l2.ReadSharedReq_mshr_misses::.cpu.data        49441                       # number of ReadSharedReq MSHR misses
system.l2.ReadSharedReq_mshr_misses::total        49441                       # number of ReadSharedReq MSHR misses
system.l2.ReadSharedReq_mshr_miss_latency::.cpu.data   3346815000                       # number of ReadSharedReq MSHR miss cycles
system.l2.ReadSharedReq_mshr_miss_latency::total   3346815000                       # number of ReadSharedReq MSHR miss cycles
system.l2.ReadSharedReq_mshr_miss_rate::.cpu.data     0.995811                       # mshr miss rate for ReadSharedReq accesses
system.l2.ReadSharedReq_mshr_miss_rate::total     0.995811                       # mshr miss rate for ReadSharedReq accesses
system.l2.ReadSharedReq_avg_mshr_miss_latency::.cpu.data 67693.108958                       # average ReadSharedReq mshr miss latency
system.l2.ReadSharedReq_avg_mshr_miss_latency::total 67693.108958                       # average ReadSharedReq mshr miss latency
system.l2.tags.pwrStateResidencyTicks::UNDEFINED  13591403500                       # Cumulative time (in ticks) in various power states
system.l2.tags.tagsinuse                  7232.552192                       # Cycle average of tags in use
system.l2.tags.total_refs                      238268                       # Total number of references to valid blocks.
system.l2.tags.sampled_refs                    120221                       # Sample count of references to valid blocks.
system.l2.tags.avg_refs                      1.981917                       # Average number of references to valid blocks.
system.l2.tags.warmup_cycle                     77000                       # Cycle when the warmup percentage was hit.
system.l2.tags.occ_blocks::.writebacks       7.094889                       # Average occupied blocks per requestor
system.l2.tags.occ_blocks::.cpu.inst        91.020296                       # Average occupied blocks per requestor
system.l2.tags.occ_blocks::.cpu.data      7134.437008                       # Average occupied blocks per requestor
system.l2.tags.occ_percent::.writebacks      0.000866                       # Average percentage of cache occupancy
system.l2.tags.occ_percent::.cpu.inst        0.011111                       # Average percentage of cache occupancy
system.l2.tags.occ_percent::.cpu.data        0.870903                       # Average percentage of cache occupancy
system.l2.tags.occ_percent::total            0.882880                       # Average percentage of cache occupancy
system.l2.tags.occ_task_id_blocks::1024          8192                       # Occupied blocks per task id
system.l2.tags.age_task_id_blocks_1024::0            2                       # Occupied blocks per task id
system.l2.tags.age_task_id_blocks_1024::1           18                       # Occupied blocks per task id
system.l2.tags.age_task_id_blocks_1024::2          342                       # Occupied blocks per task id
system.l2.tags.age_task_id_blocks_1024::3         7830                       # Occupied blocks per task id
system.l2.tags.occ_task_id_percent::1024            1                       # Percentage of cache occupancy per task id
system.l2.tags.tag_accesses                   3932557                       # Number of tag accesses
system.l2.tags.data_accesses                  3932557                       # Number of data accesses
system.cpu_voltage_domain.voltage                   1                       # Voltage in Volts
system.mem_ctrls.pwrStateResidencyTicks::UNDEFINED  13591403500                       # Cumulative time (in ticks) in various power states
system.mem_ctrls.bytes_read::.cpu.inst          33152                       # Number of bytes read from this memory
system.mem_ctrls.bytes_read::.cpu.data        7659968                       # Number of bytes read from this memory
system.mem_ctrls.bytes_read::total            7693120                       # Number of bytes read from this memory
system.mem_ctrls.bytes_inst_read::.cpu.inst        33152                       # Number of instructions bytes read from this memory
system.mem_ctrls.bytes_inst_read::total         33152                       # Number of instructions bytes read from this memory
system.mem_ctrls.bytes_written::.writebacks      4393536                       # Number of bytes written to this memory
system.mem_ctrls.bytes_written::total         4393536                       # Number of bytes written to this memory
system.mem_ctrls.num_reads::.cpu.inst             518                       # Number of read requests responded to by this memory
system.mem_ctrls.num_reads::.cpu.data          119687                       # Number of read requests responded to by this memory
system.mem_ctrls.num_reads::total              120205                       # Number of read requests responded to by this memory
system.mem_ctrls.num_writes::.writebacks        68649                       # Number of write requests responded to by this memory
system.mem_ctrls.num_writes::total              68649                       # Number of write requests responded to by this memory
system.mem_ctrls.bw_read::.cpu.inst           2439189                       # Total read bandwidth from this memory (bytes/s)
system.mem_ctrls.bw_read::.cpu.data         563589183                       # Total read bandwidth from this memory (bytes/s)
system.mem_ctrls.bw_read::total             566028372                       # Total read bandwidth from this memory (bytes/s)
system.mem_ctrls.bw_inst_read::.cpu.inst      2439189                       # Instruction read bandwidth from this memory (bytes/s)
system.mem_ctrls.bw_inst_read::total          2439189                       # Instruction read bandwidth from this memory (bytes/s)
system.mem_ctrls.bw_write::.writebacks      323258448                       # Write bandwidth from this memory (bytes/s)
system.mem_ctrls.bw_write::total            323258448                       # Write bandwidth from this memory (bytes/s)
system.mem_ctrls.bw_total::.writebacks      323258448                       # Total bandwidth to/from this memory (bytes/s)
system.mem_ctrls.bw_total::.cpu.inst          2439189                       # Total bandwidth to/from this memory (bytes/s)
system.mem_ctrls.bw_total::.cpu.data        563589183                       # Total bandwidth to/from this memory (bytes/s)
system.mem_ctrls.bw_total::total            889286820                       # Total bandwidth to/from this memory (bytes/s)
system.mem_ctrls.avgPriority_.writebacks::samples     68649.00                       # Average QoS priority value for accepted requests
system.mem_ctrls.avgPriority_.cpu.inst::samples       518.00                       # Average QoS priority value for accepted requests
system.mem_ctrls.avgPriority_.cpu.data::samples    119686.00                       # Average QoS priority value for accepted requests
system.mem_ctrls.priorityMinLatency      0.000000018750                       # per QoS priority minimum request to response latency (s)
system.mem_ctrls.priorityMaxLatency      0.010643200500                       # per QoS priority maximum request to response latency (s)
system.mem_ctrls.numReadWriteTurnArounds         4287                       # Number of turnarounds from READ to WRITE
system.mem_ctrls.numWriteReadTurnArounds         4287                       # Number of turnarounds from WRITE to READ
system.mem_ctrls.numStayReadState              303336                       # Number of times bus staying in READ state
system.mem_ctrls.numStayWriteState              64443                       # Number of times bus staying in WRITE state
system.mem_ctrls.readReqs                      120205                       # Number of read requests accepted
system.mem_ctrls.writeReqs                      68649                       # Number of write requests accepted
system.mem_ctrls.readBursts                    120205                       # Number of DRAM read bursts, including those serviced by the write queue
system.mem_ctrls.writeBursts                    68649                       # Number of DRAM write bursts, including those merged in the write queue
system.mem_ctrls.servicedByWrQ                      1                       # Number of DRAM read bursts serviced by the write queue
system.mem_ctrls.mergedWrBursts                     0                       # Number of DRAM write bursts merged with an existing one
system.mem_ctrls.neitherReadNorWriteReqs            0                       # Number of requests that are neither read nor write
system.mem_ctrls.perBankRdBursts::0              7693                       # Per bank write bursts
system.mem_ctrls.perBankRdBursts::1              7596                       # Per bank write bursts
system.mem_ctrls.perBankRdBursts::2              7575                       # Per bank write bursts
system.mem_ctrls.perBankRdBursts::3              7494                       # Per bank write bursts
system.mem_ctrls.perBankRdBursts::4              7560                       # Per bank write bursts
system.mem_ctrls.perBankRdBursts::5              7481                       # Per bank write bursts
system.mem_ctrls.perBankRdBursts::6              7493                       # Per bank write bursts
system.mem_ctrls.perBankRdBursts::7              7643                       # Per bank write bursts
system.mem_ctrls.perBankRdBursts::8              7482                       # Per bank write bursts
system.mem_ctrls.perBankRdBursts::9              7416                       # Per bank write bursts
system.mem_ctrls.perBankRdBursts::10             7438                       # Per bank write bursts
system.mem_ctrls.perBankRdBursts::11             7425                       # Per bank write bursts
system.mem_ctrls.perBankRdBursts::12             7500                       # Per bank write bursts
system.mem_ctrls.perBankRdBursts::13             7470                       # Per bank write bursts
system.mem_ctrls.perBankRdBursts::14             7450                       # Per bank write bursts
system.mem_ctrls.perBankRdBursts::15             7488                       # Per bank write bursts
system.mem_ctrls.perBankWrBursts::0              4352                       # Per bank write bursts
system.mem_ctrls.perBankWrBursts::1              4355                       # Per bank write bursts
system.mem_ctrls.perBankWrBursts::2              4387                       # Per bank write bursts
system.mem_ctrls.perBankWrBursts::3              4364                       # Per bank write bursts
system.mem_ctrls.perBankWrBursts::4              4382                       # Per bank write bursts
system.mem_ctrls.perBankWrBursts::5              4367                       # Per bank write bursts
system.mem_ctrls.perBankWrBursts::6              4296                       # Per bank write bursts
system.mem_ctrls.perBankWrBursts::7              4294                       # Per bank write bursts
system.mem_ctrls.perBankWrBursts::8              4225                       # Per bank write bursts
system.mem_ctrls.perBankWrBursts::9              4224                       # Per bank write bursts
system.mem_ctrls.perBankWrBursts::10             4224                       # Per bank write bursts
system.mem_ctrls.perBankWrBursts::11             4224                       # Per bank write bursts
system.mem_ctrls.perBankWrBursts::12             4224                       # Per bank write bursts
system.mem_ctrls.perBankWrBursts::13             4224                       # Per bank write bursts
system.mem_ctrls.perBankWrBursts::14             4224                       # Per bank write bursts
system.mem_ctrls.perBankWrBursts::15             4265                       # Per bank write bursts
system.mem_ctrls.avgRdQLen                       1.39                       # Average read queue length when enqueuing
system.mem_ctrls.avgWrQLen                      26.79                       # Average write queue length when enqueuing
system.mem_ctrls.totQLat                   1540250750                       # Total ticks spent queuing
system.mem_ctrls.totBusLat                  601020000                       # Total ticks spent in databus transfers
system.mem_ctrls.totMemAccLat              3794075750                       # Total ticks spent from burst creation until serviced by the DRAM
system.mem_ctrls.avgQLat                     12813.64                       # Average queueing delay per DRAM burst
system.mem_ctrls.avgBusLat                    5000.00                       # Average bus latency per DRAM burst
system.mem_ctrls.avgMemAccLat                31563.64                       # Average memory access latency per DRAM burst
system.mem_ctrls.numRdRetry                         0                       # Number of times read queue was full causing retry
system.mem_ctrls.numWrRetry                         0                       # Number of times write queue was full causing retry
system.mem_ctrls.readRowHits                   107664                       # Number of row buffer hits during reads
system.mem_ctrls.writeRowHits                   61413                       # Number of row buffer hits during writes
system.mem_ctrls.readRowHitRate                 89.57                       # Row buffer hit rate for reads
system.mem_ctrls.writeRowHitRate                89.46                       # Row buffer hit rate for writes
system.mem_ctrls.readPktSize::0                     0                       # Read request sizes (log2)
system.mem_ctrls.readPktSize::1                     0                       # Read request sizes (log2)
system.mem_ctrls.readPktSize::2                     0                       # Read request sizes (log2)
system.mem_ctrls.readPktSize::3                     0                       # Read request sizes (log2)
system.mem_ctrls.readPktSize::4                     0                       # Read request sizes (log2)
system.mem_ctrls.readPktSize::5                     0                       # Read request sizes (log2)
system.mem_ctrls.readPktSize::6                120205                       # Read request sizes (log2)
system.mem_ctrls.writePktSize::0                    0                       # Write request sizes (log2)
system.mem_ctrls.writePktSize::1                    0                       # Write request sizes (log2)
system.mem_ctrls.writePktSize::2                    0                       # Write request sizes (log2)
system.mem_ctrls.writePktSize::3                    0                       # Write request sizes (log2)
system.mem_ctrls.writePktSize::4                    0                       # Write request sizes (log2)
system.mem_ctrls.writePktSize::5                    0                       # Write request sizes (log2)
system.mem_ctrls.writePktSize::6                68649                       # Write request sizes (log2)
system.mem_ctrls.rdQLenPdf::0                   66908                       # What read queue length does an incoming req see
system.mem_ctrls.rdQLenPdf::1                   52651                       # What read queue length does an incoming req see
system.mem_ctrls.rdQLenPdf::2                     563                       # What read queue length does an incoming req see
system.mem_ctrls.rdQLenPdf::3                      81                       # What read queue length does an incoming req see
system.mem_ctrls.rdQLenPdf::4                       1                       # What read queue length does an incoming req see
system.mem_ctrls.rdQLenPdf::5                       0                       # What read queue length does an incoming req see
system.mem_ctrls.rdQLenPdf::6                       0                       # What read queue length does an incoming req see
system.mem_ctrls.rdQLenPdf::7                       0                       # What read queue length does an incoming req see
system.mem_ctrls.rdQLenPdf::8                       0                       # What read queue length does an incoming req see
system.mem_ctrls.rdQLenPdf::9                       0                       # What read queue length does an incoming req see
system.mem_ctrls.rdQLenPdf::10                      0                       # What read queue length does an incoming req see
system.mem_ctrls.rdQLenPdf::11                      0                       # What read queue length does an incoming req see
system.mem_ctrls.rdQLenPdf::12                      0                       # What read queue length does an incoming req see
system.mem_ctrls.rdQLenPdf::13                      0                       # What read queue length does an incoming req see
system.mem_ctrls.rdQLenPdf::14                      0                       # What read queue length does an incoming req see
system.mem_ctrls.rdQLenPdf::15                      0                       # What read queue length does an incoming req see
system.mem_ctrls.rdQLenPdf::16                      0                       # What read queue length does an incoming req see
system.mem_ctrls.rdQLenPdf::17                      0                       # What read queue length does an incoming req see
system.mem_ctrls.rdQLenPdf::18                      0                       # What read queue length does an incoming req see
system.mem_ctrls.rdQLenPdf::19                      0                       # What read queue length does an incoming req see
system.mem_ctrls.rdQLenPdf::20                      0                       # What read queue length does an incoming req see
system.mem_ctrls.rdQLenPdf::21                      0                       # What read queue length does an incoming req see
system.mem_ctrls.rdQLenPdf::22                      0                       # What read queue length does an incoming req see
system.mem_ctrls.rdQLenPdf::23                      0                       # What read queue length does an incoming req see
system.mem_ctrls.rdQLenPdf::24                      0                       # What read queue length does an incoming req see
system.mem_ctrls.rdQLenPdf::25                      0                       # What read queue length does an incoming req see
system.mem_ctrls.rdQLenPdf::26                      0                       # What read queue length does an incoming req see
system.mem_ctrls.rdQLenPdf::27                      0                       # What read queue length does an incoming req see
system.mem_ctrls.rdQLenPdf::28                      0                       # What read queue length does an incoming req see
system.mem_ctrls.rdQLenPdf::29                      0                       # What read queue length does an incoming req see
system.mem_ctrls.rdQLenPdf::30                      0                       # What read queue length does an incoming req see
system.mem_ctrls.rdQLenPdf::31                      0                       # What read queue length does an incoming req see
system.mem_ctrls.wrQLenPdf::0                       1                       # What write queue length does an incoming req see
system.mem_ctrls.wrQLenPdf::1                       1                       # What write queue length does an incoming req see
system.mem_ctrls.wrQLenPdf::2                       1                       # What write queue length does an incoming req see
system.mem_ctrls.wrQLenPdf::3                       1                       # What write queue length does an incoming req see
system.mem_ctrls.wrQLenPdf::4                       1                       # What write queue length does an incoming req see
system.mem_ctrls.wrQLenPdf::5                       1                       # What write queue length does an incoming req see
system.mem_ctrls.wrQLenPdf::6                       1                       # What write queue length does an incoming req see
system.mem_ctrls.wrQLenPdf::7                       1                       # What write queue length does an incoming req see
system.mem_ctrls.wrQLenPdf::8                       1                       # What write queue length does an incoming req see
system.mem_ctrls.wrQLenPdf::9                       1                       # What write queue length does an incoming req see
system.mem_ctrls.wrQLenPdf::10                      1                       # What write queue length does an incoming req see
system.mem_ctrls.wrQLenPdf::11                      1                       # What write queue length does an incoming req see
system.mem_ctrls.wrQLenPdf::12                      1                       # What write queue length does an incoming req see
system.mem_ctrls.wrQLenPdf::13                      1                       # What write queue length does an incoming req see
system.mem_ctrls.wrQLenPdf::14                      1                       # What write queue length does an incoming req see
system.mem_ctrls.wrQLenPdf::15                     14                       # What write queue length does an incoming req see
system.mem_ctrls.wrQLenPdf::16                     15                       # What write queue length does an incoming req see
system.mem_ctrls.wrQLenPdf::17                   3462                       # What write queue length does an incoming req see
system.mem_ctrls.wrQLenPdf::18                   4323                       # What write queue length does an incoming req see
system.mem_ctrls.wrQLenPdf::19                   4291                       # What write queue length does an incoming req see
system.mem_ctrls.wrQLenPdf::20                   4413                       # What write queue length does an incoming req see
system.mem_ctrls.wrQLenPdf::21                   4290                       # What write queue length does an incoming req see
system.mem_ctrls.wrQLenPdf::22                   4288                       # What write queue length does an incoming req see
system.mem_ctrls.wrQLenPdf::23                   4305                       # What write queue length does an incoming req see
system.mem_ctrls.wrQLenPdf::24                   4289                       # What write queue length does an incoming req see
system.mem_ctrls.wrQLenPdf::25                   4300                       # What write queue length does an incoming req see
system.mem_ctrls.wrQLenPdf::26                   4333                       # What write queue length does an incoming req see
system.mem_ctrls.wrQLenPdf::27                   4294                       # What write queue length does an incoming req see
system.mem_ctrls.wrQLenPdf::28                   4855                       # What write queue length does an incoming req see
system.mem_ctrls.wrQLenPdf::29                   4299                       # What write queue length does an incoming req see
system.mem_ctrls.wrQLenPdf::30                   4287                       # What write queue length does an incoming req see
system.mem_ctrls.wrQLenPdf::31                   4289                       # What write queue length does an incoming req see
system.mem_ctrls.wrQLenPdf::32                   4287                       # What write queue length does an incoming req see
system.mem_ctrls.wrQLenPdf::33                      0                       # What write queue length does an incoming req see
system.mem_ctrls.wrQLenPdf::34                      0                       # What write queue length does an incoming req see
system.mem_ctrls.wrQLenPdf::35                      0                       # What write queue length does an incoming req see
system.mem_ctrls.wrQLenPdf::36                      0                       # What write queue length does an incoming req see
system.mem_ctrls.wrQLenPdf::37                      0                       # What write queue length does an incoming req see
system.mem_ctrls.wrQLenPdf::38                      0                       # What write queue length does an incoming req see
system.mem_ctrls.wrQLenPdf::39                      0                       # What write queue length does an incoming req see
system.mem_ctrls.wrQLenPdf::40                      0                       # What write queue length does an incoming req see
system.mem_ctrls.wrQLenPdf::41                      0                       # What write queue length does an incoming req see
system.mem_ctrls.wrQLenPdf::42                      0                       # What write queue length does an incoming req see
system.mem_ctrls.wrQLenPdf::43                      0                       # What write queue length does an incoming req see
system.mem_ctrls.wrQLenPdf::44                      0                       # What write queue length does an incoming req see
system.mem_ctrls.wrQLenPdf::45                      0                       # What write queue length does an incoming req see
system.mem_ctrls.wrQLenPdf::46                      0                       # What write queue length does an incoming req see
system.mem_ctrls.wrQLenPdf::47                      0                       # What write queue length does an incoming req see
system.mem_ctrls.wrQLenPdf::48                      0                       # What write queue length does an incoming req see
system.mem_ctrls.wrQLenPdf::49                      0                       # What write queue length does an incoming req see
system.mem_ctrls.wrQLenPdf::50                      0                       # What write queue length does an incoming req see
system.mem_ctrls.wrQLenPdf::51                      0                       # What write queue length does an incoming req see
system.mem_ctrls.wrQLenPdf::52                      0                       # What write queue length does an incoming req see
system.mem_ctrls.wrQLenPdf::53                      0                       # What write queue length does an incoming req see
system.mem_ctrls.wrQLenPdf::54                      0                       # What write queue length does an incoming req see
system.mem_ctrls.wrQLenPdf::55                      0                       # What write queue length does an incoming req see
system.mem_ctrls.wrQLenPdf::56                      0                       # What write queue length does an incoming req see
system.mem_ctrls.wrQLenPdf::57                      0                       # What write queue length does an incoming req see
system.mem_ctrls.wrQLenPdf::58                      0                       # What write queue length does an incoming req see
system.mem_ctrls.wrQLenPdf::59                      0                       # What write queue length does an incoming req see
system.mem_ctrls.wrQLenPdf::60                      0                       # What write queue length does an incoming req see
system.mem_ctrls.wrQLenPdf::61                      0                       # What write queue length does an incoming req see
system.mem_ctrls.wrQLenPdf::62                      0                       # What write queue length does an incoming req see
system.mem_ctrls.wrQLenPdf::63                      0                       # What write queue length does an incoming req see
system.mem_ctrls.bytesPerActivate::samples        19757                       # Bytes accessed per row activation
system.mem_ctrls.bytesPerActivate::mean    611.700967                       # Bytes accessed per row activation
system.mem_ctrls.bytesPerActivate::gmean   502.691467                       # Bytes accessed per row activation
system.mem_ctrls.bytesPerActivate::stdev   309.166756                       # Bytes accessed per row activation
system.mem_ctrls.bytesPerActivate::0-127         1103      5.58%      5.58% # Bytes accessed per row activation
system.mem_ctrls.bytesPerActivate::128-255         1538      7.78%     13.37% # Bytes accessed per row activation
system.mem_ctrls.bytesPerActivate::256-383          855      4.33%     17.69% # Bytes accessed per row activation
system.mem_ctrls.bytesPerActivate::384-511          706      3.57%     21.27% # Bytes accessed per row activation
system.mem_ctrls.bytesPerActivate::512-639         8584     43.45%     64.72% # Bytes accessed per row activation
system.mem_ctrls.bytesPerActivate::640-767          361      1.83%     66.54% # Bytes accessed per row activation
system.mem_ctrls.bytesPerActivate::768-895          610      3.09%     69.63% # Bytes accessed per row activation
system.mem_ctrls.bytesPerActivate::896-1023          330      1.67%     71.30% # Bytes accessed per row activation
system.mem_ctrls.bytesPerActivate::1024-1151         5670     28.70%    100.00% # Bytes accessed per row activation
system.mem_ctrls.bytesPerActivate::total        19757                       # Bytes accessed per row activation
system.mem_ctrls.rdPerTurnAround::samples         4287                       # Reads before turning the bus around for writes
system.mem_ctrls.rdPerTurnAround::mean      28.035689                       # Reads before turning the bus around for writes
system.mem_ctrls.rdPerTurnAround::gmean     24.032206                       # Reads before turning the bus around for writes
system.mem_ctrls.rdPerTurnAround::stdev     45.358682                       # Reads before turning the bus around for writes
system.mem_ctrls.rdPerTurnAround::0-63           4237     98.83%     98.83% # Reads before turning the bus around for writes
system.mem_ctrls.rdPerTurnAround::64-127           11      0.26%     99.09% # Reads before turning the bus around for writes
system.mem_ctrls.rdPerTurnAround::128-191            4      0.09%     99.18% # Reads before turning the bus around for writes
system.mem_ctrls.rdPerTurnAround::192-255            2      0.05%     99.23% # Reads before turning the bus around for writes
system.mem_ctrls.rdPerTurnAround::256-319           27      0.63%     99.86% # Reads before turning the bus around for writes
system.mem_ctrls.rdPerTurnAround::320-383            1      0.02%     99.88% # Reads before turning the bus around for writes
system.mem_ctrls.rdPerTurnAround::704-767            1      0.02%     99.91% # Reads before turning the bus around for writes
system.mem_ctrls.rdPerTurnAround::960-1023            1      0.02%     99.93% # Reads before turning the bus around for writes
system.mem_ctrls.rdPerTurnAround::1152-1215            1      0.02%     99.95% # Reads before turning the bus around for writes
system.mem_ctrls.rdPerTurnAround::1344-1407            1      0.02%     99.98% # Reads before turning the bus around for writes
system.mem_ctrls.rdPerTurnAround::1536-1599            1      0.02%    100.00% # Reads before turning the bus around for writes
[...]
system.cpu.icache.ReadReq_avg_miss_latency::total 77538.317757                       # average ReadReq miss latency
system.cpu.icache.ReadReq_mshr_misses::.cpu.inst          535                       # number of ReadReq MSHR misses
system.cpu.icache.ReadReq_mshr_misses::total          535                       # number of ReadReq MSHR misses
system.cpu.icache.ReadReq_mshr_miss_latency::.cpu.inst     40948000                       # number of ReadReq MSHR miss cycles
system.cpu.icache.ReadReq_mshr_miss_latency::total     40948000                       # number of ReadReq MSHR miss cycles
system.cpu.icache.ReadReq_mshr_miss_rate::.cpu.inst     0.000460                       # mshr miss rate for ReadReq accesses
system.cpu.icache.ReadReq_mshr_miss_rate::total     0.000460                       # mshr miss rate for ReadReq accesses
system.cpu.icache.ReadReq_avg_mshr_miss_latency::.cpu.inst 76538.317757                       # average ReadReq mshr miss latency
system.cpu.icache.ReadReq_avg_mshr_miss_latency::total 76538.317757                       # average ReadReq mshr miss latency
system.cpu.icache.tags.pwrStateResidencyTicks::UNDEFINED  13591403500                       # Cumulative time (in ticks) in various power states
system.cpu.icache.tags.tagsinuse           453.611654                       # Cycle average of tags in use
system.cpu.icache.tags.total_refs             1162822                       # Total number of references to valid blocks.
system.cpu.icache.tags.sampled_refs               535                       # Sample count of references to valid blocks.
system.cpu.icache.tags.avg_refs           2173.499065                       # Average number of references to valid blocks.
system.cpu.icache.tags.warmup_cycle             87500                       # Cycle when the warmup percentage was hit.
system.cpu.icache.tags.occ_blocks::.cpu.inst   453.611654                       # Average occupied blocks per requestor
system.cpu.icache.tags.occ_percent::.cpu.inst     0.221490                       # Average percentage of cache occupancy
system.cpu.icache.tags.occ_percent::total     0.221490                       # Average percentage of cache occupancy
system.cpu.icache.tags.occ_task_id_blocks::1024          505                       # Occupied blocks per task id
system.cpu.icache.tags.age_task_id_blocks_1024::3          101                       # Occupied blocks per task id
system.cpu.icache.tags.age_task_id_blocks_1024::4          404                       # Occupied blocks per task id
system.cpu.icache.tags.occ_task_id_percent::1024     0.246582                       # Percentage of cache occupancy per task id
system.cpu.icache.tags.tag_accesses           2326179                       # Number of tag accesses
system.cpu.icache.tags.data_accesses          2326179                       # Number of data accesses
system.cpu.dtb.walker.pwrStateResidencyTicks::UNDEFINED  13591403500                       # Cumulative time (in ticks) in various power states
system.cpu.dtb.stage2_mmu.stage2_tlb.walker.pwrStateResidencyTicks::UNDEFINED  13591403500                       # Cumulative time (in ticks) in various power states
system.cpu.dcache.pwrStateResidencyTicks::UNDEFINED  13591403500                       # Cumulative time (in ticks) in various power states
system.cpu.dcache.demand_hits::.cpu.data      6986085                       # number of demand (read+write) hits
system.cpu.dcache.demand_hits::total          6986085                       # number of demand (read+write) hits
system.cpu.dcache.overall_hits::.cpu.data      6986192                       # number of overall hits
system.cpu.dcache.overall_hits::total         6986192                       # number of overall hits
system.cpu.dcache.demand_misses::.cpu.data       156220                       # number of demand (read+write) misses
system.cpu.dcache.demand_misses::total         156220                       # number of demand (read+write) misses
system.cpu.dcache.overall_misses::.cpu.data       157726                       # number of overall misses
system.cpu.dcache.overall_misses::total        157726                       # number of overall misses
system.cpu.dcache.demand_miss_latency::.cpu.data  10443859000                       # number of demand (read+write) miss cycles
system.cpu.dcache.demand_miss_latency::total  10443859000                       # number of demand (read+write) miss cycles
system.cpu.dcache.overall_miss_latency::.cpu.data  10443859000                       # number of overall miss cycles
system.cpu.dcache.overall_miss_latency::total  10443859000                       # number of overall miss cycles
system.cpu.dcache.demand_accesses::.cpu.data      7142305                       # number of demand (read+write) accesses
system.cpu.dcache.demand_accesses::total      7142305                       # number of demand (read+write) accesses
system.cpu.dcache.overall_accesses::.cpu.data      7143918                       # number of overall (read+write) accesses
system.cpu.dcache.overall_accesses::total      7143918                       # number of overall (read+write) accesses
system.cpu.dcache.demand_miss_rate::.cpu.data     0.021872                       # miss rate for demand accesses
system.cpu.dcache.demand_miss_rate::total     0.021872                       # miss rate for demand accesses
system.cpu.dcache.overall_miss_rate::.cpu.data     0.022078                       # miss rate for overall accesses
system.cpu.dcache.overall_miss_rate::total     0.022078                       # miss rate for overall accesses
system.cpu.dcache.demand_avg_miss_latency::.cpu.data 66853.533478                       # average overall miss latency
system.cpu.dcache.demand_avg_miss_latency::total 66853.533478                       # average overall miss latency
system.cpu.dcache.overall_avg_miss_latency::.cpu.data 66215.202313                       # average overall miss latency
system.cpu.dcache.overall_avg_miss_latency::total 66215.202313                       # average overall miss latency
system.cpu.dcache.blocked_cycles::no_mshrs        35200                       # number of cycles access was blocked
system.cpu.dcache.blocked_cycles::no_targets            0                       # number of cycles access was blocked
system.cpu.dcache.blocked::no_mshrs               571                       # number of cycles access was blocked
system.cpu.dcache.blocked::no_targets               0                       # number of cycles access was blocked
system.cpu.dcache.avg_blocked_cycles::no_mshrs    61.646235                       # average number of cycles each access was blocked
system.cpu.dcache.avg_blocked_cycles::no_targets          nan                       # average number of cycles each access was blocked
system.cpu.dcache.writebacks::.writebacks        69188                       # number of writebacks
system.cpu.dcache.writebacks::total             69188                       # number of writebacks
system.cpu.dcache.demand_mshr_hits::.cpu.data        37825                       # number of demand (read+write) MSHR hits
system.cpu.dcache.demand_mshr_hits::total        37825                       # number of demand (read+write) MSHR hits
system.cpu.dcache.overall_mshr_hits::.cpu.data        37825                       # number of overall MSHR hits
system.cpu.dcache.overall_mshr_hits::total        37825                       # number of overall MSHR hits
system.cpu.dcache.demand_mshr_misses::.cpu.data       118395                       # number of demand (read+write) MSHR misses
system.cpu.dcache.demand_mshr_misses::total       118395                       # number of demand (read+write) MSHR misses
system.cpu.dcache.overall_mshr_misses::.cpu.data       119895                       # number of overall MSHR misses
system.cpu.dcache.overall_mshr_misses::total       119895                       # number of overall MSHR misses
system.cpu.dcache.demand_mshr_miss_latency::.cpu.data   9982147500                       # number of demand (read+write) MSHR miss cycles
system.cpu.dcache.demand_mshr_miss_latency::total   9982147500                       # number of demand (read+write) MSHR miss cycles
system.cpu.dcache.overall_mshr_miss_latency::.cpu.data  10095920499                       # number of overall MSHR miss cycles
system.cpu.dcache.overall_mshr_miss_latency::total  10095920499                       # number of overall MSHR miss cycles
system.cpu.dcache.demand_mshr_miss_rate::.cpu.data     0.016577                       # mshr miss rate for demand accesses
system.cpu.dcache.demand_mshr_miss_rate::total     0.016577                       # mshr miss rate for demand accesses
system.cpu.dcache.overall_mshr_miss_rate::.cpu.data     0.016783                       # mshr miss rate for overall accesses
system.cpu.dcache.overall_mshr_miss_rate::total     0.016783                       # mshr miss rate for overall accesses
system.cpu.dcache.demand_avg_mshr_miss_latency::.cpu.data 84312.238693                       # average overall mshr miss latency
system.cpu.dcache.demand_avg_mshr_miss_latency::total 84312.238693                       # average overall mshr miss latency
system.cpu.dcache.overall_avg_mshr_miss_latency::.cpu.data 84206.351382                       # average overall mshr miss latency
system.cpu.dcache.overall_avg_mshr_miss_latency::total 84206.351382                       # average overall mshr miss latency
system.cpu.dcache.replacements                 117847                       # number of replacements
system.cpu.dcache.ReadReq_hits::.cpu.data      5638639                       # number of ReadReq hits
system.cpu.dcache.ReadReq_hits::total         5638639                       # number of ReadReq hits
system.cpu.dcache.ReadReq_misses::.cpu.data        48159                       # number of ReadReq misses
system.cpu.dcache.ReadReq_misses::total         48159                       # number of ReadReq misses
system.cpu.dcache.ReadReq_miss_latency::.cpu.data   3853203500                       # number of ReadReq miss cycles
system.cpu.dcache.ReadReq_miss_latency::total   3853203500                       # number of ReadReq miss cycles
system.cpu.dcache.ReadReq_accesses::.cpu.data      5686798                       # number of ReadReq accesses(hits+misses)
system.cpu.dcache.ReadReq_accesses::total      5686798                       # number of ReadReq accesses(hits+misses)
system.cpu.dcache.ReadReq_miss_rate::.cpu.data     0.008469                       # miss rate for ReadReq accesses
system.cpu.dcache.ReadReq_miss_rate::total     0.008469                       # miss rate for ReadReq accesses
system.cpu.dcache.ReadReq_avg_miss_latency::.cpu.data 80010.039660                       # average ReadReq miss latency
system.cpu.dcache.ReadReq_avg_miss_latency::total 80010.039660                       # average ReadReq miss latency
system.cpu.dcache.ReadReq_mshr_hits::.cpu.data           10                       # number of ReadReq MSHR hits
system.cpu.dcache.ReadReq_mshr_hits::total           10                       # number of ReadReq MSHR hits
system.cpu.dcache.ReadReq_mshr_misses::.cpu.data        48149                       # number of ReadReq MSHR misses
system.cpu.dcache.ReadReq_mshr_misses::total        48149                       # number of ReadReq MSHR misses
system.cpu.dcache.ReadReq_mshr_miss_latency::.cpu.data   3804293500                       # number of ReadReq MSHR miss cycles
system.cpu.dcache.ReadReq_mshr_miss_latency::total   3804293500                       # number of ReadReq MSHR miss cycles
system.cpu.dcache.ReadReq_mshr_miss_rate::.cpu.data     0.008467                       # mshr miss rate for ReadReq accesses
system.cpu.dcache.ReadReq_mshr_miss_rate::total     0.008467                       # mshr miss rate for ReadReq accesses
system.cpu.dcache.ReadReq_avg_mshr_miss_latency::.cpu.data 79010.851731                       # average ReadReq mshr miss latency
system.cpu.dcache.ReadReq_avg_mshr_miss_latency::total 79010.851731                       # average ReadReq mshr miss latency
system.cpu.dcache.WriteReq_hits::.cpu.data      1347446                       # number of WriteReq hits
system.cpu.dcache.WriteReq_hits::total        1347446                       # number of WriteReq hits
system.cpu.dcache.WriteReq_misses::.cpu.data       108061                       # number of WriteReq misses
system.cpu.dcache.WriteReq_misses::total       108061                       # number of WriteReq misses
system.cpu.dcache.WriteReq_miss_latency::.cpu.data   6590655500                       # number of WriteReq miss cycles
system.cpu.dcache.WriteReq_miss_latency::total   6590655500                       # number of WriteReq miss cycles
system.cpu.dcache.WriteReq_accesses::.cpu.data      1455507                       # number of WriteReq accesses(hits+misses)
system.cpu.dcache.WriteReq_accesses::total      1455507                       # number of WriteReq accesses(hits+misses)
system.cpu.dcache.WriteReq_miss_rate::.cpu.data     0.074243                       # miss rate for WriteReq accesses
system.cpu.dcache.WriteReq_miss_rate::total     0.074243                       # miss rate for WriteReq accesses
system.cpu.dcache.WriteReq_avg_miss_latency::.cpu.data 60990.139828                       # average WriteReq miss latency
system.cpu.dcache.WriteReq_avg_miss_latency::total 60990.139828                       # average WriteReq miss latency
system.cpu.dcache.WriteReq_mshr_hits::.cpu.data        37815                       # number of WriteReq MSHR hits
system.cpu.dcache.WriteReq_mshr_hits::total        37815                       # number of WriteReq MSHR hits
system.cpu.dcache.WriteReq_mshr_misses::.cpu.data        70246                       # number of WriteReq MSHR misses
system.cpu.dcache.WriteReq_mshr_misses::total        70246                       # number of WriteReq MSHR misses
system.cpu.dcache.WriteReq_mshr_miss_latency::.cpu.data   6177854000                       # number of WriteReq MSHR miss cycles
system.cpu.dcache.WriteReq_mshr_miss_latency::total   6177854000                       # number of WriteReq MSHR miss cycles
system.cpu.dcache.WriteReq_mshr_miss_rate::.cpu.data     0.048262                       # mshr miss rate for WriteReq accesses
system.cpu.dcache.WriteReq_mshr_miss_rate::total     0.048262                       # mshr miss rate for WriteReq accesses
system.cpu.dcache.WriteReq_avg_mshr_miss_latency::.cpu.data 87945.989807                       # average WriteReq mshr miss latency
system.cpu.dcache.WriteReq_avg_mshr_miss_latency::total 87945.989807                       # average WriteReq mshr miss latency
system.cpu.dcache.SoftPFReq_hits::.cpu.data          107                       # number of SoftPFReq hits
system.cpu.dcache.SoftPFReq_hits::total           107                       # number of SoftPFReq hits
system.cpu.dcache.SoftPFReq_misses::.cpu.data         1506                       # number of SoftPFReq misses
system.cpu.dcache.SoftPFReq_misses::total         1506                       # number of SoftPFReq misses
system.cpu.dcache.SoftPFReq_accesses::.cpu.data         1613                       # number of SoftPFReq accesses(hits+misses)
system.cpu.dcache.SoftPFReq_accesses::total         1613                       # number of SoftPFReq accesses(hits+misses)
system.cpu.dcache.SoftPFReq_miss_rate::.cpu.data     0.933664                       # miss rate for SoftPFReq accesses
system.cpu.dcache.SoftPFReq_miss_rate::total     0.933664                       # miss rate for SoftPFReq accesses
system.cpu.dcache.SoftPFReq_mshr_misses::.cpu.data         1500                       # number of SoftPFReq MSHR misses
system.cpu.dcache.SoftPFReq_mshr_misses::total         1500                       # number of SoftPFReq MSHR misses
system.cpu.dcache.SoftPFReq_mshr_miss_latency::.cpu.data    113772999                       # number of SoftPFReq MSHR miss cycles
system.cpu.dcache.SoftPFReq_mshr_miss_latency::total    113772999                       # number of SoftPFReq MSHR miss cycles
system.cpu.dcache.SoftPFReq_mshr_miss_rate::.cpu.data     0.929944                       # mshr miss rate for SoftPFReq accesses
system.cpu.dcache.SoftPFReq_mshr_miss_rate::total     0.929944                       # mshr miss rate for SoftPFReq accesses
system.cpu.dcache.SoftPFReq_avg_mshr_miss_latency::.cpu.data 75848.666000                       # average SoftPFReq mshr miss latency
system.cpu.dcache.SoftPFReq_avg_mshr_miss_latency::total 75848.666000                       # average SoftPFReq mshr miss latency
system.cpu.dcache.LoadLockedReq_hits::.cpu.data           38                       # number of LoadLockedReq hits
system.cpu.dcache.LoadLockedReq_hits::total           38                       # number of LoadLockedReq hits
system.cpu.dcache.LoadLockedReq_accesses::.cpu.data           38                       # number of LoadLockedReq accesses(hits+misses)
system.cpu.dcache.LoadLockedReq_accesses::total           38                       # number of LoadLockedReq accesses(hits+misses)
system.cpu.dcache.StoreCondReq_hits::.cpu.data           38                       # number of StoreCondReq hits
system.cpu.dcache.StoreCondReq_hits::total           38                       # number of StoreCondReq hits
system.cpu.dcache.StoreCondReq_accesses::.cpu.data           38                       # number of StoreCondReq accesses(hits+misses)
system.cpu.dcache.StoreCondReq_accesses::total           38                       # number of StoreCondReq accesses(hits+misses)
system.cpu.dcache.tags.pwrStateResidencyTicks::UNDEFINED  13591403500                       # Cumulative time (in ticks) in various power states
system.cpu.dcache.tags.tagsinuse          1830.764369                       # Cycle average of tags in use
system.cpu.dcache.tags.total_refs             7106163                       # Total number of references to valid blocks.
system.cpu.dcache.tags.sampled_refs            119895                       # Sample count of references to valid blocks.
system.cpu.dcache.tags.avg_refs             59.269886                       # Average number of references to valid blocks.
system.cpu.dcache.tags.warmup_cycle            176500                       # Cycle when the warmup percentage was hit.
system.cpu.dcache.tags.occ_blocks::.cpu.data  1830.764369                       # Average occupied blocks per requestor
system.cpu.dcache.tags.occ_percent::.cpu.data     0.893928                       # Average percentage of cache occupancy
system.cpu.dcache.tags.occ_percent::total     0.893928                       # Average percentage of cache occupancy
system.cpu.dcache.tags.occ_task_id_blocks::1024         2048                       # Occupied blocks per task id
system.cpu.dcache.tags.age_task_id_blocks_1024::0            2                       # Occupied blocks per task id
system.cpu.dcache.tags.age_task_id_blocks_1024::1           18                       # Occupied blocks per task id
system.cpu.dcache.tags.age_task_id_blocks_1024::2          342                       # Occupied blocks per task id
system.cpu.dcache.tags.age_task_id_blocks_1024::3         1686                       # Occupied blocks per task id
system.cpu.dcache.tags.occ_task_id_percent::1024            1                       # Percentage of cache occupancy per task id
system.cpu.dcache.tags.tag_accesses          14407883                       # Number of tag accesses
system.cpu.dcache.tags.data_accesses         14407883                       # Number of data accesses
system.cpu.itb.walker.pwrStateResidencyTicks::UNDEFINED  13591403500                       # Cumulative time (in ticks) in various power states
system.cpu.itb.stage2_mmu.stage2_tlb.walker.pwrStateResidencyTicks::UNDEFINED  13591403500                       # Cumulative time (in ticks) in various power states

---------- End Simulation Statistics   ----------
