
---------- Begin Simulation Statistics ----------
final_tick                                27941325500                       # Number of ticks from beginning of simulation (restored from checkpoints and never reset)
host_inst_rate                                 234695                       # Simulator instruction rate (inst/s)
host_mem_usage                                 716644                       # Number of bytes of host memory used
host_op_rate                                   333185                       # Simulator op (including micro ops) rate (op/s)
host_seconds                                    42.61                       # Real time elapsed on the host
host_tick_rate                              655767788                       # Simulator tick rate (ticks/s)
sim_freq                                 1000000000000                       # Frequency of simulated ticks
sim_insts                                    10000001                       # Number of instructions simulated
sim_ops                                      14196511                       # Number of ops (including micro ops) simulated
sim_seconds                                  0.027941                       # Number of seconds simulated
sim_ticks                                 27941325500                       # Number of ticks simulated
system.cpu.branchPred.BTBCorrect                    0                       # Number of correct BTB predictions (this stat may not work properly.
system.cpu.branchPred.BTBHitPct             99.542985                       # BTB Hit Percentage
system.cpu.branchPred.BTBHits                  561735                       # Number of BTB hits
system.cpu.branchPred.BTBLookups               564314                       # Number of BTB lookups
system.cpu.branchPred.RASInCorrect                  5                       # Number of incorrect RAS predictions.
system.cpu.branchPred.condIncorrect               927                       # Number of conditional branches incorrect
system.cpu.branchPred.condPredicted            560984                       # Number of conditional branches predicted
system.cpu.branchPred.indirectHits                 14                       # Number of indirect target hits.
system.cpu.branchPred.indirectLookups             123                       # Number of indirect predictor lookups.
system.cpu.branchPred.indirectMisses              109                       # Number of indirect misses.
system.cpu.branchPred.lookups                  567780                       # Number of BP lookups
system.cpu.branchPred.usedRAS                    2299                       # Number of times the RAS was used to get a target.
system.cpu.branchPredindirectMispredicted           50                       # Number of mispredicted indirect branches.
system.cpu.committedInsts                    10000001                       # Number of instructions committed
system.cpu.committedOps                      14196511                       # Number of ops (including micro ops) committed
system.cpu.cpi                               5.588265                       # CPI: cycles per instruction
system.cpu.discardedOps                          2848                       # Number of ops (including micro ops) which were discarded before commit
system.cpu.dtb.accesses                             0                       # DTB accesses
system.cpu.dtb.align_faults                         0                       # Number of TLB faults due to alignment restrictions
system.cpu.dtb.domain_faults                        0                       # Number of TLB faults due to domain restrictions
system.cpu.dtb.flush_entries                        0                       # Number of entries that have been flushed from TLB
system.cpu.dtb.flush_tlb                            0                       # Number of times complete TLB was flushed
system.cpu.dtb.flush_tlb_asid                       0                       # Number of times TLB was flushed by ASID
system.cpu.dtb.flush_tlb_mva                        0                       # Number of times TLB was flushed by MVA
system.cpu.dtb.flush_tlb_mva_asid                   0                       # Number of times TLB was flushed by MVA & ASID
system.cpu.dtb.hits                                 0                       # DTB hits
system.cpu.dtb.inst_accesses                        0                       # ITB inst accesses
system.cpu.dtb.inst_hits                            0                       # ITB inst hits
system.cpu.dtb.inst_misses                          0                       # ITB inst misses
system.cpu.dtb.misses                               0                       # DTB misses
system.cpu.dtb.perms_faults                         0                       # Number of TLB faults due to permissions restrictions
system.cpu.dtb.prefetch_faults                      0                       # Number of TLB faults due to prefetch
system.cpu.dtb.read_accesses                        0                       # DTB read accesses
system.cpu.dtb.read_hits                            0                       # DTB read hits
system.cpu.dtb.read_misses                          0                       # DTB read misses
system.cpu.dtb.stage2_mmu.stage2_tlb.accesses            0                       # DTB accesses
system.cpu.dtb.stage2_mmu.stage2_tlb.align_faults            0                       # Number of TLB faults due to alignment restrictions
system.cpu.dtb.stage2_mmu.stage2_tlb.domain_faults            0                       # Number of TLB faults due to domain restrictions
system.cpu.dtb.stage2_mmu.stage2_tlb.flush_entries            0                       # Number of entries that have been flushed from TLB
system.cpu.dtb.stage2_mmu.stage2_tlb.flush_tlb            0                       # Number of times complete TLB was flushed
system.cpu.dtb.stage2_mmu.stage2_tlb.flush_tlb_asid            0                       # Number of times TLB was flushed by ASID
system.cpu.dtb.stage2_mmu.stage2_tlb.flush_tlb_mva            0                       # Number of times TLB was flushed by MVA
system.cpu.dtb.stage2_mmu.stage2_tlb.flush_tlb_mva_asid            0                       # Number of times TLB was flushed by MVA & ASID
system.cpu.dtb.stage2_mmu.stage2_tlb.hits            0                       # DTB hits
system.cpu.dtb.stage2_mmu.stage2_tlb.inst_accesses            0                       # ITB inst accesses
system.cpu.dtb.stage2_mmu.stage2_tlb.inst_hits            0                       # ITB inst hits
system.cpu.dtb.stage2_mmu.stage2_tlb.inst_misses            0                       # ITB inst misses
system.cpu.dtb.stage2_mmu.stage2_tlb.misses            0                       # DTB misses
system.cpu.dtb.stage2_mmu.stage2_tlb.perms_faults            0                       # Number of TLB faults due to permissions restrictions
system.cpu.dtb.stage2_mmu.stage2_tlb.prefetch_faults            0                       # Number of TLB faults due to prefetch
system.cpu.dtb.stage2_mmu.stage2_tlb.read_accesses            0                       # DTB read accesses
system.cpu.dtb.stage2_mmu.stage2_tlb.read_hits            0                       # DTB read hits
system.cpu.dtb.stage2_mmu.stage2_tlb.read_misses            0                       # DTB read misses
system.cpu.dtb.stage2_mmu.stage2_tlb.walker.walkRequestOrigin_Requested::Data            0                       # Table walker requests started/completed, data/inst
system.cpu.dtb.stage2_mmu.stage2_tlb.walker.walkRequestOrigin_Requested::Inst            0                       # Table walker requests started/completed, data/inst
system.cpu.dtb.stage2_mmu.stage2_tlb.walker.walkRequestOrigin_Requested::total            0                       # Table walker requests started/completed, data/inst
system.cpu.dtb.stage2_mmu.stage2_tlb.walker.walkRequestOrigin_Completed::Data            0                       # Table walker requests started/completed, data/inst
system.cpu.dtb.stage2_mmu.stage2_tlb.walker.walkRequestOrigin_Completed::Inst            0                       # Table walker requests started/completed, data/inst
system.cpu.dtb.stage2_mmu.stage2_tlb.walker.walkRequestOrigin_Completed::total            0                       # Table walker requests started/completed, data/inst
system.cpu.dtb.stage2_mmu.stage2_tlb.walker.walkRequestOrigin::total            0                       # Table walker requests started/completed, data/inst
system.cpu.dtb.stage2_mmu.stage2_tlb.walker.walks            0                       # Table walker walks requested
system.cpu.dtb.stage2_mmu.stage2_tlb.write_accesses            0                       # DTB write accesses
system.cpu.dtb.stage2_mmu.stage2_tlb.write_hits            0                       # DTB write hits
system.cpu.dtb.stage2_mmu.stage2_tlb.write_misses            0                       # DTB write misses
system.cpu.dtb.walker.walkRequestOrigin_Requested::Data            0                       # Table walker requests started/completed, data/inst
system.cpu.dtb.walker.walkRequestOrigin_Requested::Inst            0                       # Table walker requests started/completed, data/inst
system.cpu.dtb.walker.walkRequestOrigin_Requested::total            0                       # Table walker requests started/completed, data/inst
system.cpu.dtb.walker.walkRequestOrigin_Completed::Data            0                       # Table walker requests started/completed, data/inst
system.cpu.dtb.walker.walkRequestOrigin_Completed::Inst            0                       # Table walker requests started/completed, data/inst
system.cpu.dtb.walker.walkRequestOrigin_Completed::total            0                       # Table walker requests started/completed, data/inst
system.cpu.dtb.walker.walkRequestOrigin::total            0                       # Table walker requests started/completed, data/inst
system.cpu.dtb.walker.walks                         0                       # Table walker walks requested
system.cpu.dtb.write_accesses                       0                       # DTB write accesses
system.cpu.dtb.write_hits                           0                       # DTB write hits
system.cpu.dtb.write_misses                         0                       # DTB write misses
system.cpu.fetch2.amo_instructions                  0                       # Number of memory atomic instructions successfully decoded
system.cpu.fetch2.fp_instructions                   0                       # Number of floating point instructions successfully decoded
system.cpu.fetch2.int_instructions            4890976                       # Number of integer instructions successfully decoded
system.cpu.fetch2.load_instructions           2075527                       # Number of memory load instructions successfully decoded
system.cpu.fetch2.store_instructions           166782                       # Number of memory store instructions successfully decoded
system.cpu.fetch2.vec_instructions                  0                       # Number of SIMD instructions successfully decoded
system.cpu.idleCycles                        39654559                       # Total number of cycles that the object has spent stopped
system.cpu.ipc                               0.178946                       # IPC: instructions per cycle
system.cpu.itb.accesses                             0                       # DTB accesses
system.cpu.itb.align_faults                         0                       # Number of TLB faults due to alignment restrictions
system.cpu.itb.domain_faults                        0                       # Number of TLB faults due to domain restrictions
system.cpu.itb.flush_entries                        0                       # Number of entries that have been flushed from TLB
system.cpu.itb.flush_tlb                            0                       # Number of times complete TLB was flushed
system.cpu.itb.flush_tlb_asid                       0                       # Number of times TLB was flushed by ASID
system.cpu.itb.flush_tlb_mva                        0                       # Number of times TLB was flushed by MVA
system.cpu.itb.flush_tlb_mva_asid                   0                       # Number of times TLB was flushed by MVA & ASID
system.cpu.itb.hits                                 0                       # DTB hits
system.cpu.itb.inst_accesses                        0                       # ITB inst accesses
system.cpu.itb.inst_hits                            0                       # ITB inst hits
system.cpu.itb.inst_misses                          0                       # ITB inst misses
system.cpu.itb.misses                               0                       # DTB misses
system.cpu.itb.perms_faults                         0                       # Number of TLB faults due to permissions restrictions
system.cpu.itb.prefetch_faults                      0                       # Number of TLB faults due to prefetch
system.cpu.itb.read_accesses                        0                       # DTB read accesses
system.cpu.itb.read_hits                            0                       # DTB read hits
system.cpu.itb.read_misses                          0                       # DTB read misses
system.cpu.itb.stage2_mmu.stage2_tlb.accesses            0                       # DTB accesses
system.cpu.itb.stage2_mmu.stage2_tlb.align_faults            0                       # Number of TLB faults due to alignment restrictions
system.cpu.itb.stage2_mmu.stage2_tlb.domain_faults            0                       # Number of TLB faults due to domain restrictions
system.cpu.itb.stage2_mmu.stage2_tlb.flush_entries            0                       # Number of entries that have been flushed from TLB
system.cpu.itb.stage2_mmu.stage2_tlb.flush_tlb            0                       # Number of times complete TLB was flushed
system.cpu.itb.stage2_mmu.stage2_tlb.flush_tlb_asid            0                       # Number of times TLB was flushed by ASID
system.cpu.itb.stage2_mmu.stage2_tlb.flush_tlb_mva            0                       # Number of times TLB was flushed by MVA
system.cpu.itb.stage2_mmu.stage2_tlb.flush_tlb_mva_asid            0                       # Number of times TLB was flushed by MVA & ASID
system.cpu.itb.stage2_mmu.stage2_tlb.hits            0                       # DTB hits
system.cpu.itb.stage2_mmu.stage2_tlb.inst_accesses            0                       # ITB inst accesses
system.cpu.itb.stage2_mmu.stage2_tlb.inst_hits            0                       # ITB inst hits
system.cpu.itb.stage2_mmu.stage2_tlb.inst_misses            0                       # ITB inst misses
system.cpu.itb.stage2_mmu.stage2_tlb.misses            0                       # DTB misses
system.cpu.itb.stage2_mmu.stage2_tlb.perms_faults            0                       # Number of TLB faults due to permissions restrictions
system.cpu.itb.stage2_mmu.stage2_tlb.prefetch_faults            0                       # Number of TLB faults due to prefetch
system.cpu.itb.stage2_mmu.stage2_tlb.read_accesses            0                       # DTB read accesses
system.cpu.itb.stage2_mmu.stage2_tlb.read_hits            0                       # DTB read hits
system.cpu.itb.stage2_mmu.stage2_tlb.read_misses            0                       # DTB read misses
system.cpu.itb.stage2_mmu.stage2_tlb.walker.walkRequestOrigin_Requested::Data            0                       # Table walker requests started/completed, data/inst
system.cpu.itb.stage2_mmu.stage2_tlb.walker.walkRequestOrigin_Requested::Inst            0                       # Table walker requests started/completed, data/inst
system.cpu.itb.stage2_mmu.stage2_tlb.walker.walkRequestOrigin_Requested::total            0                       # Table walker requests started/completed, data/inst
system.cpu.itb.stage2_mmu.stage2_tlb.walker.walkRequestOrigin_Completed::Data            0                       # Table walker requests started/completed, data/inst
system.cpu.itb.stage2_mmu.stage2_tlb.walker.walkRequestOrigin_Completed::Inst            0                       # Table walker requests started/completed, data/inst
system.cpu.itb.stage2_mmu.stage2_tlb.walker.walkRequestOrigin_Completed::total            0                       # Table walker requests started/completed, data/inst
system.cpu.itb.stage2_mmu.stage2_tlb.walker.walkRequestOrigin::total            0                       # Table walker requests started/completed, data/inst
system.cpu.itb.stage2_mmu.stage2_tlb.walker.walks            0                       # Table walker walks requested
system.cpu.itb.stage2_mmu.stage2_tlb.write_accesses            0                       # DTB write accesses
system.cpu.itb.stage2_mmu.stage2_tlb.write_hits            0                       # DTB write hits
system.cpu.itb.stage2_mmu.stage2_tlb.write_misses            0                       # DTB write misses
system.cpu.itb.walker.walkRequestOrigin_Requested::Data            0                       # Table walker requests started/completed, data/inst
system.cpu.itb.walker.walkRequestOrigin_Requested::Inst            0                       # Table walker requests started/completed, data/inst
system.cpu.itb.walker.walkRequestOrigin_Requested::total            0                       # Table walker requests started/completed, data/inst
system.cpu.itb.walker.walkRequestOrigin_Completed::Data            0                       # Table walker requests started/completed, data/inst
system.cpu.itb.walker.walkRequestOrigin_Completed::Inst            0                       # Table walker requests started/completed, data/inst
system.cpu.itb.walker.walkRequestOrigin_Completed::total            0                       # Table walker requests started/completed, data/inst
system.cpu.itb.walker.walkRequestOrigin::total            0                       # Table walker requests started/completed, data/inst
system.cpu.itb.walker.walks                         0                       # Table walker walks requested
system.cpu.itb.write_accesses                       0                       # DTB write accesses
system.cpu.itb.write_hits                           0                       # DTB write hits
system.cpu.itb.write_misses                         0                       # DTB write misses
system.cpu.numCycles                         55882651                       # number of cpu cycles simulated
system.cpu.numFetchSuspends                         0                       # Number of times Execute suspended instruction fetching
system.cpu.numWorkItemsCompleted                    0                       # number of work items this cpu completed
system.cpu.numWorkItemsStarted                      0                       # number of work items this cpu started
system.cpu.op_class_0::No_OpClass                   0      0.00%      0.00% # Class of committed instruction
system.cpu.op_class_0::IntAlu                 7650230     53.89%     53.89% # Class of committed instruction
system.cpu.op_class_0::IntMult                 114597      0.81%     54.70% # Class of committed instruction
system.cpu.op_class_0::IntDiv                       0      0.00%     54.70% # Class of committed instruction
system.cpu.op_class_0::FloatAdd                     0      0.00%     54.70% # Class of committed instruction
system.cpu.op_class_0::FloatCmp                     0      0.00%     54.70% # Class of committed instruction
system.cpu.op_class_0::FloatCvt                     0      0.00%     54.70% # Class of committed instruction
system.cpu.op_class_0::FloatMult                    0      0.00%     54.70% # Class of committed instruction
system.cpu.op_class_0::FloatMultAcc                 0      0.00%     54.70% # Class of committed instruction
system.cpu.op_class_0::FloatDiv                     0      0.00%     54.70% # Class of committed instruction
system.cpu.op_class_0::FloatMisc                    0      0.00%     54.70% # Class of committed instruction
system.cpu.op_class_0::FloatSqrt                    0      0.00%     54.70% # Class of committed instruction
system.cpu.op_class_0::SimdAdd                      0      0.00%     54.70% # Class of committed instruction
system.cpu.op_class_0::SimdAddAcc                   0      0.00%     54.70% # Class of committed instruction
system.cpu.op_class_0::SimdAlu                      0      0.00%     54.70% # Class of committed instruction
system.cpu.op_class_0::SimdCmp                      0      0.00%     54.70% # Class of committed instruction
system.cpu.op_class_0::SimdCvt                      0      0.00%     54.70% # Class of committed instruction
system.cpu.op_class_0::SimdMisc                     0      0.00%     54.70% # Class of committed instruction
system.cpu.op_class_0::SimdMult                     0      0.00%     54.70% # Class of committed instruction
system.cpu.op_class_0::SimdMultAcc                  0      0.00%     54.70% # Class of committed instruction
system.cpu.op_class_0::SimdShift                    0      0.00%     54.70% # Class of committed instruction
system.cpu.op_class_0::SimdShiftAcc                 0      0.00%     54.70% # Class of committed instruction
system.cpu.op_class_0::SimdDiv                      0      0.00%     54.70% # Class of committed instruction
system.cpu.op_class_0::SimdSqrt                     0      0.00%     54.70% # Class of committed instruction
system.cpu.op_class_0::SimdFloatAdd                 0      0.00%     54.70% # Class of committed instruction
system.cpu.op_class_0::SimdFloatAlu                 0      0.00%     54.70% # Class of committed instruction
system.cpu.op_class_0::SimdFloatCmp                 0      0.00%     54.70% # Class of committed instruction
system.cpu.op_class_0::SimdFloatCvt                 0      0.00%     54.70% # Class of committed instruction
system.cpu.op_class_0::SimdFloatDiv                 0      0.00%     54.70% # Class of committed instruction
system.cpu.op_class_0::SimdFloatMisc               17      0.00%     54.70% # Class of committed instruction
system.cpu.op_class_0::SimdFloatMult                0      0.00%     54.70% # Class of committed instruction
system.cpu.op_class_0::SimdFloatMultAcc             0      0.00%     54.70% # Class of committed instruction
system.cpu.op_class_0::SimdFloatSqrt                0      0.00%     54.70% # Class of committed instruction
system.cpu.op_class_0::SimdReduceAdd                0      0.00%     54.70% # Class of committed instruction
system.cpu.op_class_0::SimdReduceAlu                0      0.00%     54.70% # Class of committed instruction
system.cpu.op_class_0::SimdReduceCmp                0      0.00%     54.70% # Class of committed instruction
system.cpu.op_class_0::SimdFloatReduceAdd            0      0.00%     54.70% # Class of committed instruction
system.cpu.op_class_0::SimdFloatReduceCmp            0      0.00%     54.70% # Class of committed instruction
system.cpu.op_class_0::SimdAes                      0      0.00%     54.70% # Class of committed instruction
system.cpu.op_class_0::SimdAesMix                   0      0.00%     54.70% # Class of committed instruction
system.cpu.op_class_0::SimdSha1Hash                 0      0.00%     54.70% # Class of committed instruction
system.cpu.op_class_0::SimdSha1Hash2                0      0.00%     54.70% # Class of committed instruction
system.cpu.op_class_0::SimdSha256Hash               0      0.00%     54.70% # Class of committed instruction
system.cpu.op_class_0::SimdSha256Hash2              0      0.00%     54.70% # Class of committed instruction
system.cpu.op_class_0::SimdShaSigma2                0      0.00%     54.70% # Class of committed instruction
system.cpu.op_class_0::SimdShaSigma3                0      0.00%     54.70% # Class of committed instruction
system.cpu.op_class_0::SimdPredAlu                  0      0.00%     54.70% # Class of committed instruction
system.cpu.op_class_0::MemRead                2073892     14.61%     69.30% # Class of committed instruction
system.cpu.op_class_0::MemWrite               4357775     30.70%    100.00% # Class of committed instruction
system.cpu.op_class_0::FloatMemRead                 0      0.00%    100.00% # Class of committed instruction
system.cpu.op_class_0::FloatMemWrite                0      0.00%    100.00% # Class of committed instruction
system.cpu.op_class_0::IprAccess                    0      0.00%    100.00% # Class of committed instruction
system.cpu.op_class_0::InstPrefetch                 0      0.00%    100.00% # Class of committed instruction
system.cpu.op_class_0::total                 14196511                       # Class of committed instruction
system.cpu.tickCycles                        16228092                       # Number of cycles that the object actually ticked
system.cpu.workload.numSyscalls                    11                       # Number of system calls
system.membus.snoop_filter.hit_multi_requests            0                       # Number of requests hitting in the snoop filter with multiple (>1) holders of the requested data.
system.membus.snoop_filter.hit_multi_snoops            0                       # Number of snoops hitting in the snoop filter with multiple (>1) holders of the requested data.
system.membus.snoop_filter.hit_single_requests       199067                       # Number of requests hitting in the snoop filter with a single holder of the requested data.
system.membus.snoop_filter.hit_single_snoops            0                       # Number of snoops hitting in the snoop filter with a single holder of the requested data.
system.membus.snoop_filter.tot_requests        464093                       # Total number of requests made to the snoop filter.
system.membus.snoop_filter.tot_snoops               0                       # Total number of snoops made to the snoop filter.
system.tol2bus.snoop_filter.hit_multi_requests           37                       # Number of requests hitting in the snoop filter with multiple (>1) holders of the requested data.
system.tol2bus.snoop_filter.hit_multi_snoops            0                       # Number of snoops hitting in the snoop filter with multiple (>1) holders of the requested data.
system.tol2bus.snoop_filter.hit_single_requests       262624                       # Number of requests hitting in the snoop filter with a single holder of the requested data.
system.tol2bus.snoop_filter.hit_single_snoops          423                       # Number of snoops hitting in the snoop filter with a single holder of the requested data.
system.tol2bus.snoop_filter.tot_requests       527719                       # Total number of requests made to the snoop filter.
system.tol2bus.snoop_filter.tot_snoops            423                       # Total number of snoops made to the snoop filter.
system.membus.pwrStateResidencyTicks::UNDEFINED  27941325500                       # Cumulative time (in ticks) in various power states
system.membus.trans_dist::ReadResp                552                       # Transaction distribution
system.membus.trans_dist::WritebackDirty       198950                       # Transaction distribution
system.membus.trans_dist::CleanEvict              117                       # Transaction distribution
system.membus.trans_dist::ReadExReq            264474                       # Transaction distribution
system.membus.trans_dist::ReadExResp           264474                       # Transaction distribution
system.membus.trans_dist::ReadSharedReq           552                       # Transaction distribution
system.membus.pkt_count_system.l2.mem_side::system.mem_ctrls.port       729119                       # Packet count per connected master and slave (bytes)
system.membus.pkt_count::total                 729119                       # Packet count per connected master and slave (bytes)
system.membus.pkt_size_system.l2.mem_side::system.mem_ctrls.port     29694464                       # Cumulative packet size per connected master and slave (bytes)
system.membus.pkt_size::total                29694464                       # Cumulative packet size per connected master and slave (bytes)
system.membus.snoops                                0                       # Total snoops (count)
system.membus.snoopTraffic                          0                       # Total snoop traffic (bytes)
system.membus.snoop_fanout::samples            265026                       # Request fanout histogram
system.membus.snoop_fanout::mean                    0                       # Request fanout histogram
system.membus.snoop_fanout::stdev                   0                       # Request fanout histogram
system.membus.snoop_fanout::underflows              0      0.00%      0.00% # Request fanout histogram
system.membus.snoop_fanout::0                  265026    100.00%    100.00% # Request fanout histogram
system.membus.snoop_fanout::1                       0      0.00%    100.00% # Request fanout histogram
system.membus.snoop_fanout::overflows               0      0.00%    100.00% # Request fanout histogram
system.membus.snoop_fanout::min_value               0                       # Request fanout histogram
system.membus.snoop_fanout::max_value               0                       # Request fanout histogram
system.membus.snoop_fanout::total              265026                       # Request fanout histogram
system.membus.respLayer1.occupancy         1394597500                       # Layer occupancy (ticks)
system.membus.respLayer1.utilization              5.0                       # Layer utilization (%)
system.membus.reqLayer0.occupancy          1260410500                       # Layer occupancy (ticks)
system.membus.reqLayer0.utilization               4.5                       # Layer utilization (%)
system.tol2bus.pwrStateResidencyTicks::UNDEFINED  27941325500                       # Cumulative time (in ticks) in various power states
system.tol2bus.trans_dist::ReadResp               613                       # Transaction distribution
system.tol2bus.trans_dist::WritebackDirty       461407                       # Transaction distribution
system.tol2bus.trans_dist::CleanEvict             707                       # Transaction distribution
system.tol2bus.trans_dist::ReadExReq           264482                       # Transaction distribution
system.tol2bus.trans_dist::ReadExResp          264482                       # Transaction distribution
system.tol2bus.trans_dist::ReadCleanReq           423                       # Transaction distribution
system.tol2bus.trans_dist::ReadSharedReq          190                       # Transaction distribution
system.tol2bus.pkt_count_system.cpu.icache.mem_side::system.l2.cpu_side          846                       # Packet count per connected master and slave (bytes)
system.tol2bus.pkt_count_system.cpu.dcache.mem_side::system.l2.cpu_side       791968                       # Packet count per connected master and slave (bytes)
system.tol2bus.pkt_count::total                792814                       # Packet count per connected master and slave (bytes)
system.tol2bus.pkt_size_system.cpu.icache.mem_side::system.l2.cpu_side        27072                       # Cumulative packet size per connected master and slave (bytes)
system.tol2bus.pkt_size_system.cpu.dcache.mem_side::system.l2.cpu_side     33736256                       # Cumulative packet size per connected master and slave (bytes)
system.tol2bus.pkt_size::total               33763328                       # Cumulative packet size per connected master and slave (bytes)
system.tol2bus.snoops                          199490                       # Total snoops (count)
system.tol2bus.snoopTraffic                  12732800                       # Total snoop traffic (bytes)
system.tol2bus.snoop_fanout::samples           464585                       # Request fanout histogram
system.tol2bus.snoop_fanout::mean            0.000990                       # Request fanout histogram
system.tol2bus.snoop_fanout::stdev           0.031451                       # Request fanout histogram
system.tol2bus.snoop_fanout::underflows             0      0.00%      0.00% # Request fanout histogram
system.tol2bus.snoop_fanout::0                 464125     99.90%     99.90% # Request fanout histogram
system.tol2bus.snoop_fanout::1                    460      0.10%    100.00% # Request fanout histogram
system.tol2bus.snoop_fanout::2                      0      0.00%    100.00% # Request fanout histogram
system.tol2bus.snoop_fanout::overflows              0      0.00%    100.00% # Request fanout histogram
system.tol2bus.snoop_fanout::min_value              0                       # Request fanout histogram
system.tol2bus.snoop_fanout::max_value              1                       # Request fanout histogram
system.tol2bus.snoop_fanout::total             464585                       # Request fanout histogram
system.tol2bus.reqLayer0.occupancy          526316500                       # Layer occupancy (ticks)
system.tol2bus.reqLayer0.utilization              1.9                       # Layer utilization (%)
system.tol2bus.respLayer1.occupancy         397010495                       # Layer occupancy (ticks)
system.tol2bus.respLayer1.utilization             1.4                       # Layer utilization (%)
system.tol2bus.respLayer0.occupancy            634999                       # Layer occupancy (ticks)
system.tol2bus.respLayer0.utilization             0.0                       # Layer utilization (%)
system.voltage_domain.voltage                       1                       # Voltage in Volts
system.clk_domain.clock                          1000                       # Clock period in ticks
system.l2.pwrStateResidencyTicks::UNDEFINED  27941325500                       # Cumulative time (in ticks) in various power states
system.l2.demand_hits::.cpu.inst                   18                       # number of demand (read+write) hits
system.l2.demand_hits::.cpu.data                   45                       # number of demand (read+write) hits
system.l2.demand_hits::total                       63                       # number of demand (read+write) hits
system.l2.overall_hits::.cpu.inst                  18                       # number of overall hits
system.l2.overall_hits::.cpu.data                  45                       # number of overall hits
system.l2.overall_hits::total                      63                       # number of overall hits
system.l2.demand_misses::.cpu.inst                405                       # number of demand (read+write) misses
system.l2.demand_misses::.cpu.data             264627                       # number of demand (read+write) misses
system.l2.demand_misses::total                 265032                       # number of demand (read+write) misses
system.l2.overall_misses::.cpu.inst               405                       # number of overall misses
system.l2.overall_misses::.cpu.data            264627                       # number of overall misses
system.l2.overall_misses::total                265032                       # number of overall misses
system.l2.demand_miss_latency::.cpu.inst     31212500                       # number of demand (read+write) miss cycles
system.l2.demand_miss_latency::.cpu.data  20845417500                       # number of demand (read+write) miss cycles
system.l2.demand_miss_latency::total      20876630000                       # number of demand (read+write) miss cycles
system.l2.overall_miss_latency::.cpu.inst     31212500                       # number of overall miss cycles
system.l2.overall_miss_latency::.cpu.data  20845417500                       # number of overall miss cycles
system.l2.overall_miss_latency::total     20876630000                       # number of overall miss cycles
system.l2.demand_accesses::.cpu.inst              423                       # number of demand (read+write) accesses
system.l2.demand_accesses::.cpu.data           264672                       # number of demand (read+write) accesses
system.l2.demand_accesses::total               265095                       # number of demand (read+write) accesses
system.l2.overall_accesses::.cpu.inst             423                       # number of overall (read+write) accesses
system.l2.overall_accesses::.cpu.data          264672                       # number of overall (read+write) accesses
system.l2.overall_accesses::total              265095                       # number of overall (read+write) accesses
system.l2.demand_miss_rate::.cpu.inst        0.957447                       # miss rate for demand accesses
system.l2.demand_miss_rate::.cpu.data        0.999830                       # miss rate for demand accesses
system.l2.demand_miss_rate::total            0.999762                       # miss rate for demand accesses
system.l2.overall_miss_rate::.cpu.inst       0.957447                       # miss rate for overall accesses
system.l2.overall_miss_rate::.cpu.data       0.999830                       # miss rate for overall accesses
system.l2.overall_miss_rate::total           0.999762                       # miss rate for overall accesses
system.l2.demand_avg_miss_latency::.cpu.inst 77067.901235                       # average overall miss latency
system.l2.demand_avg_miss_latency::.cpu.data 78772.829303                       # average overall miss latency
system.l2.demand_avg_miss_latency::total 78770.223973                       # average overall miss latency
system.l2.overall_avg_miss_latency::.cpu.inst 77067.901235                       # average overall miss latency
system.l2.overall_avg_miss_latency::.cpu.data 78772.829303                       # average overall miss latency
system.l2.overall_avg_miss_latency::total 78770.223973                       # average overall miss latency
system.l2.blocked_cycles::no_mshrs                  0                       # number of cycles access was blocked
system.l2.blocked_cycles::no_targets                0                       # number of cycles access was blocked
system.l2.blocked::no_mshrs                         0                       # number of cycles access was blocked
system.l2.blocked::no_targets                       0                       # number of cycles access was blocked
system.l2.avg_blocked_cycles::no_mshrs            nan                       # average number of cycles each access was blocked
system.l2.avg_blocked_cycles::no_targets          nan                       # average number of cycles each access was blocked
system.l2.writebacks::.writebacks              198950                       # number of writebacks
system.l2.writebacks::total                    198950                       # number of writebacks
system.l2.demand_mshr_hits::.cpu.inst               1                       # number of demand (read+write) MSHR hits
system.l2.demand_mshr_hits::.cpu.data               5                       # number of demand (read+write) MSHR hits
system.l2.demand_mshr_hits::total                   6                       # number of demand (read+write) MSHR hits
system.l2.overall_mshr_hits::.cpu.inst              1                       # number of overall MSHR hits
system.l2.overall_mshr_hits::.cpu.data              5                       # number of overall MSHR hits
system.l2.overall_mshr_hits::total                  6                       # number of overall MSHR hits
system.l2.demand_mshr_misses::.cpu.inst           404                       # number of demand (read+write) MSHR misses
system.l2.demand_mshr_misses::.cpu.data        264622                       # number of demand (read+write) MSHR misses
system.l2.demand_mshr_misses::total            265026                       # number of demand (read+write) MSHR misses
system.l2.overall_mshr_misses::.cpu.inst          404                       # number of overall MSHR misses
system.l2.overall_mshr_misses::.cpu.data       264622                       # number of overall MSHR misses
system.l2.overall_mshr_misses::total           265026                       # number of overall MSHR misses
system.l2.demand_mshr_miss_latency::.cpu.inst     27089000                       # number of demand (read+write) MSHR miss cycles
system.l2.demand_mshr_miss_latency::.cpu.data  18198872000                       # number of demand (read+write) MSHR miss cycles
system.l2.demand_mshr_miss_latency::total  18225961000                       # number of demand (read+write) MSHR miss cycles
system.l2.overall_mshr_miss_latency::.cpu.inst     27089000                       # number of overall MSHR miss cycles
system.l2.overall_mshr_miss_latency::.cpu.data  18198872000                       # number of overall MSHR miss cycles
system.l2.overall_mshr_miss_latency::total  18225961000                       # number of overall MSHR miss cycles
system.l2.demand_mshr_miss_rate::.cpu.inst     0.955083                       # mshr miss rate for demand accesses
system.l2.demand_mshr_miss_rate::.cpu.data     0.999811                       # mshr miss rate for demand accesses
system.l2.demand_mshr_miss_rate::total       0.999740                       # mshr miss rate for demand accesses
system.l2.overall_mshr_miss_rate::.cpu.inst     0.955083                       # mshr miss rate for overall accesses
system.l2.overall_mshr_miss_rate::.cpu.data     0.999811                       # mshr miss rate for overall accesses
system.l2.overall_mshr_miss_rate::total      0.999740                       # mshr miss rate for overall accesses
system.l2.demand_avg_mshr_miss_latency::.cpu.inst 67051.980198                       # average overall mshr miss latency
system.l2.demand_avg_mshr_miss_latency::.cpu.data 68773.087650                       # average overall mshr miss latency
system.l2.demand_avg_mshr_miss_latency::total 68770.464030                       # average overall mshr miss latency
system.l2.overall_avg_mshr_miss_latency::.cpu.inst 67051.980198                       # average overall mshr miss latency
system.l2.overall_avg_mshr_miss_latency::.cpu.data 68773.087650                       # average overall mshr miss latency
system.l2.overall_avg_mshr_miss_latency::total 68770.464030                       # average overall mshr miss latency
system.l2.replacements                         199490                       # number of replacements
system.l2.WritebackDirty_hits::.writebacks       262457                       # number of WritebackDirty hits
system.l2.WritebackDirty_hits::total           262457                       # number of WritebackDirty hits
system.l2.WritebackDirty_accesses::.writebacks       262457                       # number of WritebackDirty accesses(hits+misses)
system.l2.WritebackDirty_accesses::total       262457                       # number of WritebackDirty accesses(hits+misses)
system.l2.ReadExReq_hits::.cpu.data                 8                       # number of ReadExReq hits
system.l2.ReadExReq_hits::total                     8                       # number of ReadExReq hits
system.l2.ReadExReq_misses::.cpu.data          264474                       # number of ReadExReq misses
system.l2.ReadExReq_misses::total              264474                       # number of ReadExReq misses
system.l2.ReadExReq_miss_latency::.cpu.data  20832933500                       # number of ReadExReq miss cycles
system.l2.ReadExReq_miss_latency::total   20832933500                       # number of ReadExReq miss cycles
system.l2.ReadExReq_accesses::.cpu.data        264482                       # number of ReadExReq accesses(hits+misses)
system.l2.ReadExReq_accesses::total            264482                       # number of ReadExReq accesses(hits+misses)
system.l2.ReadExReq_miss_rate::.cpu.data     0.999970                       # miss rate for ReadExReq accesses
system.l2.ReadExReq_miss_rate::total         0.999970                       # miss rate for ReadExReq accesses
system.l2.ReadExReq_avg_miss_latency::.cpu.data 78771.196791                       # average ReadExReq miss latency
system.l2.ReadExReq_avg_miss_latency::total 78771.196791                       # average ReadExReq miss latency
system.l2.ReadExReq_mshr_misses::.cpu.data       264474                       # number of ReadExReq MSHR misses
system.l2.ReadExReq_mshr_misses::total         264474                       # number of ReadExReq MSHR misses
system.l2.ReadExReq_mshr_miss_latency::.cpu.data  18188193500                       # number of ReadExReq MSHR miss cycles
system.l2.ReadExReq_mshr_miss_latency::total  18188193500                       # number of ReadExReq MSHR miss cycles
system.l2.ReadExReq_mshr_miss_rate::.cpu.data     0.999970                       # mshr miss rate for ReadExReq accesses
system.l2.ReadExReq_mshr_miss_rate::total     0.999970                       # mshr miss rate for ReadExReq accesses
system.l2.ReadExReq_avg_mshr_miss_latency::.cpu.data 68771.196791                       # average ReadExReq mshr miss latency
system.l2.ReadExReq_avg_mshr_miss_latency::total 68771.196791                       # average ReadExReq mshr miss latency
system.l2.ReadCleanReq_hits::.cpu.inst             18                       # number of ReadCleanReq hits
system.l2.ReadCleanReq_hits::total                 18                       # number of ReadCleanReq hits
system.l2.ReadCleanReq_misses::.cpu.inst          405                       # number of ReadCleanReq misses
system.l2.ReadCleanReq_misses::total              405                       # number of ReadCleanReq misses
system.l2.ReadCleanReq_miss_latency::.cpu.inst     31212500                       # number of ReadCleanReq miss cycles
system.l2.ReadCleanReq_miss_latency::total     31212500                       # number of ReadCleanReq miss cycles
system.l2.ReadCleanReq_accesses::.cpu.inst          423                       # number of ReadCleanReq accesses(hits+misses)
system.l2.ReadCleanReq_accesses::total            423                       # number of ReadCleanReq accesses(hits+misses)
system.l2.ReadCleanReq_miss_rate::.cpu.inst     0.957447                       # miss rate for ReadCleanReq accesses
system.l2.ReadCleanReq_miss_rate::total      0.957447                       # miss rate for ReadCleanReq accesses
system.l2.ReadCleanReq_avg_miss_latency::.cpu.inst 77067.901235                       # average ReadCleanReq miss latency
system.l2.ReadCleanReq_avg_miss_latency::total 77067.901235                       # average ReadCleanReq miss latency
system.l2.ReadCleanReq_mshr_hits::.cpu.inst            1                       # number of ReadCleanReq MSHR hits
system.l2.ReadCleanReq_mshr_hits::total             1                       # number of ReadCleanReq MSHR hits
system.l2.ReadCleanReq_mshr_misses::.cpu.inst          404                       # number of ReadCleanReq MSHR misses
system.l2.ReadCleanReq_mshr_misses::total          404                       # number of ReadCleanReq MSHR misses
system.l2.ReadCleanReq_mshr_miss_latency::.cpu.inst     27089000                       # number of ReadCleanReq MSHR miss cycles
system.l2.ReadCleanReq_mshr_miss_latency::total     27089000                       # number of ReadCleanReq MSHR miss cycles
system.l2.ReadCleanReq_mshr_miss_rate::.cpu.inst     0.955083                       # mshr miss rate for ReadCleanReq accesses
system.l2.ReadCleanReq_mshr_miss_rate::total     0.955083                       # mshr miss rate for ReadCleanReq accesses
system.l2.ReadCleanReq_avg_mshr_miss_latency::.cpu.inst 67051.980198                       # average ReadCleanReq mshr miss latency
system.l2.ReadCleanReq_avg_mshr_miss_latency::total 67051.980198                       # average ReadCleanReq mshr miss latency
system.l2.ReadSharedReq_hits::.cpu.data            37                       # number of ReadSharedReq hits
system.l2.ReadSharedReq_hits::total                37                       # number of ReadSharedReq hits
system.l2.ReadSharedReq_misses::.cpu.data          153                       # number of ReadSharedReq misses
system.l2.ReadSharedReq_misses::total             153                       # number of ReadSharedReq misses
system.l2.ReadSharedReq_miss_latency::.cpu.data     12484000                       # number of ReadSharedReq miss cycles
system.l2.ReadSharedReq_miss_latency::total     12484000                       # number of ReadSharedReq miss cycles
system.l2.ReadSharedReq_accesses::.cpu.data          190                       # number of ReadSharedReq accesses(hits+misses)
system.l2.ReadSharedReq_accesses::total           190                       # number of ReadSharedReq accesses(hits+misses)
system.l2.ReadSharedReq_miss_rate::.cpu.data     0.805263                       # miss rate for ReadSharedReq accesses
system.l2.ReadSharedReq_miss_rate::total     0.805263                       # miss rate for ReadSharedReq accesses
system.l2.ReadSharedReq_avg_miss_latency::.cpu.data 81594.771242                       # average ReadSharedReq miss latency
system.l2.ReadSharedReq_avg_miss_latency::total 81594.771242                       # average ReadSharedReq miss latency
system.l2.ReadSharedReq_mshr_hits::.cpu.data            5                       # number of ReadSharedReq MSHR hits
system.l2.ReadSharedReq_mshr_hits::total            5                       # number of ReadSharedReq MSHR hits
system.l2.ReadSharedReq_mshr_misses::.cpu.data          148                       # number of ReadSharedReq MSHR misses
system.l2.ReadSharedReq_mshr_misses::total          148                       # number of ReadSharedReq MSHR misses
system.l2.ReadSharedReq_mshr_miss_latency::.cpu.data     10678500                       # number of ReadSharedReq MSHR miss cycles
system.l2.ReadSharedReq_mshr_miss_latency::total     10678500                       # number of ReadSharedReq MSHR miss cycles
system.l2.ReadSharedReq_mshr_miss_rate::.cpu.data     0.778947                       # mshr miss rate for ReadSharedReq accesses
system.l2.ReadSharedReq_mshr_miss_rate::total     0.778947                       # mshr miss rate for ReadSharedReq accesses
system.l2.ReadSharedReq_avg_mshr_miss_latency::.cpu.data 72152.027027                       # average ReadSharedReq mshr miss latency
system.l2.ReadSharedReq_avg_mshr_miss_latency::total 72152.027027                       # average ReadSharedReq mshr miss latency
system.l2.tags.pwrStateResidencyTicks::UNDEFINED  27941325500                       # Cumulative time (in ticks) in various power states
system.l2.tags.tagsinuse                 52461.496550                       # Cycle average of tags in use
system.l2.tags.total_refs                      527676                       # Total number of references to valid blocks.
system.l2.tags.sampled_refs                    265026                       # Sample count of references to valid blocks.
system.l2.tags.avg_refs                      1.991035                       # Average number of references to valid blocks.
system.l2.tags.warmup_cycle                     77000                       # Cycle when the warmup percentage was hit.
system.l2.tags.occ_blocks::.cpu.inst       115.903614                       # Average occupied blocks per requestor
system.l2.tags.occ_blocks::.cpu.data     52345.592935                       # Average occupied blocks per requestor
system.l2.tags.occ_percent::.cpu.inst        0.001769                       # Average percentage of cache occupancy
system.l2.tags.occ_percent::.cpu.data        0.798730                       # Average percentage of cache occupancy
system.l2.tags.occ_percent::total            0.800499                       # Average percentage of cache occupancy
system.l2.tags.occ_task_id_blocks::1024         65536                       # Occupied blocks per task id
system.l2.tags.age_task_id_blocks_1024::0          103                       # Occupied blocks per task id
system.l2.tags.age_task_id_blocks_1024::1          927                       # Occupied blocks per task id
system.l2.tags.age_task_id_blocks_1024::2         9271                       # Occupied blocks per task id
system.l2.tags.age_task_id_blocks_1024::3        55235                       # Occupied blocks per task id
system.l2.tags.occ_task_id_percent::1024            1                       # Percentage of cache occupancy per task id
system.l2.tags.tag_accesses                   4486482                       # Number of tag accesses
system.l2.tags.data_accesses                  4486482                       # Number of data accesses
system.cpu_voltage_domain.voltage                   1                       # Voltage in Volts
system.mem_ctrls.pwrStateResidencyTicks::UNDEFINED  27941325500                       # Cumulative time (in ticks) in various power states
system.mem_ctrls.bytes_read::.cpu.inst          25856                       # Number of bytes read from this memory
system.mem_ctrls.bytes_read::.cpu.data       16935808                       # Number of bytes read from this memory
system.mem_ctrls.bytes_read::total           16961664                       # Number of bytes read from this memory
system.mem_ctrls.bytes_inst_read::.cpu.inst        25856                       # Number of instructions bytes read from this memory
system.mem_ctrls.bytes_inst_read::total         25856                       # Number of instructions bytes read from this memory
system.mem_ctrls.bytes_written::.writebacks     12732800                       # Number of bytes written to this memory
system.mem_ctrls.bytes_written::total        12732800                       # Number of bytes written to this memory
system.mem_ctrls.num_reads::.cpu.inst             404                       # Number of read requests responded to by this memory
system.mem_ctrls.num_reads::.cpu.data          264622                       # Number of read requests responded to by this memory
system.mem_ctrls.num_reads::total              265026                       # Number of read requests responded to by this memory
system.mem_ctrls.num_writes::.writebacks       198950                       # Number of write requests responded to by this memory
system.mem_ctrls.num_writes::total             198950                       # Number of write requests responded to by this memory
system.mem_ctrls.bw_read::.cpu.inst            925368                       # Total read bandwidth from this memory (bytes/s)
system.mem_ctrls.bw_read::.cpu.data         606120422                       # Total read bandwidth from this memory (bytes/s)
system.mem_ctrls.bw_read::total             607045790                       # Total read bandwidth from this memory (bytes/s)
system.mem_ctrls.bw_inst_read::.cpu.inst       925368                       # Instruction read bandwidth from this memory (bytes/s)
system.mem_ctrls.bw_inst_read::total           925368                       # Instruction read bandwidth from this memory (bytes/s)
system.mem_ctrls.bw_write::.writebacks      455697780                       # Write bandwidth from this memory (bytes/s)
system.mem_ctrls.bw_write::total            455697780                       # Write bandwidth from this memory (bytes/s)
system.mem_ctrls.bw_total::.writebacks      455697780                       # Total bandwidth to/from this memory (bytes/s)
system.mem_ctrls.bw_total::.cpu.inst           925368                       # Total bandwidth to/from this memory (bytes/s)
system.mem_ctrls.bw_total::.cpu.data        606120422                       # Total bandwidth to/from this memory (bytes/s)
system.mem_ctrls.bw_total::total           1062743570                       # Total bandwidth to/from this memory (bytes/s)
system.mem_ctrls.avgPriority_.writebacks::samples    198950.00                       # Average QoS priority value for accepted requests
system.mem_ctrls.avgPriority_.cpu.inst::samples       404.00                       # Average QoS priority value for accepted requests
system.mem_ctrls.avgPriority_.cpu.data::samples    264622.00                       # Average QoS priority value for accepted requests
system.mem_ctrls.priorityMinLatency      0.000000018750                       # per QoS priority minimum request to response latency (s)
system.mem_ctrls.priorityMaxLatency      0.000903238500                       # per QoS priority maximum request to response latency (s)
system.mem_ctrls.numReadWriteTurnArounds        12429                       # Number of turnarounds from READ to WRITE
system.mem_ctrls.numWriteReadTurnArounds        12429                       # Number of turnarounds from WRITE to READ
system.mem_ctrls.numStayReadState              722980                       # Number of times bus staying in READ state
system.mem_ctrls.numStayWriteState             187191                       # Number of times bus staying in WRITE state
system.mem_ctrls.readReqs                      265026                       # Number of read requests accepted
system.mem_ctrls.writeReqs                     198950                       # Number of write requests accepted
system.mem_ctrls.readBursts                    265026                       # Number of DRAM read bursts, including those serviced by the write queue
system.mem_ctrls.writeBursts                   198950                       # Number of DRAM write bursts, including those merged in the write queue
system.mem_ctrls.servicedByWrQ                      0                       # Number of DRAM read bursts serviced by the write queue
system.mem_ctrls.mergedWrBursts                     0                       # Number of DRAM write bursts merged with an existing one
system.mem_ctrls.neitherReadNorWriteReqs            0                       # Number of requests that are neither read nor write
system.mem_ctrls.perBankRdBursts::0             16545                       # Per bank write bursts
system.mem_ctrls.perBankRdBursts::1             16631                       # Per bank write bursts
system.mem_ctrls.perBankRdBursts::2             16608                       # Per bank write bursts
system.mem_ctrls.perBankRdBursts::3             16608                       # Per bank write bursts
system.mem_ctrls.perBankRdBursts::4             16574                       # Per bank write bursts
system.mem_ctrls.perBankRdBursts::5             16612                       # Per bank write bursts
system.mem_ctrls.perBankRdBursts::6             16602                       # Per bank write bursts
system.mem_ctrls.perBankRdBursts::7             16555                       # Per bank write bursts
system.mem_ctrls.perBankRdBursts::8             16521                       # Per bank write bursts
system.mem_ctrls.perBankRdBursts::9             16534                       # Per bank write bursts
system.mem_ctrls.perBankRdBursts::10            16533                       # Per bank write bursts
system.mem_ctrls.perBankRdBursts::11            16549                       # Per bank write bursts
system.mem_ctrls.perBankRdBursts::12            16554                       # Per bank write bursts
system.mem_ctrls.perBankRdBursts::13            16510                       # Per bank write bursts
system.mem_ctrls.perBankRdBursts::14            16615                       # Per bank write bursts
system.mem_ctrls.perBankRdBursts::15            16475                       # Per bank write bursts
system.mem_ctrls.perBankWrBursts::0             12360                       # Per bank write bursts
system.mem_ctrls.perBankWrBursts::1             12493                       # Per bank write bursts
system.mem_ctrls.perBankWrBursts::2             12485                       # Per bank write bursts
system.mem_ctrls.perBankWrBursts::3             12493                       # Per bank write bursts
system.mem_ctrls.perBankWrBursts::4             12473                       # Per bank write bursts
system.mem_ctrls.perBankWrBursts::5             12474                       # Per bank write bursts
system.mem_ctrls.perBankWrBursts::6             12488                       # Per bank write bursts
system.mem_ctrls.perBankWrBursts::7             12456                       # Per bank write bursts
system.mem_ctrls.perBankWrBursts::8             12416                       # Per bank write bursts
system.mem_ctrls.perBankWrBursts::9             12416                       # Per bank write bursts
system.mem_ctrls.perBankWrBursts::10            12344                       # Per bank write bursts
system.mem_ctrls.perBankWrBursts::11            12424                       # Per bank write bursts
system.mem_ctrls.perBankWrBursts::12            12433                       # Per bank write bursts
system.mem_ctrls.perBankWrBursts::13            12374                       # Per bank write bursts
system.mem_ctrls.perBankWrBursts::14            12438                       # Per bank write bursts
system.mem_ctrls.perBankWrBursts::15            12360                       # Per bank write bursts
system.mem_ctrls.avgRdQLen                       1.09                       # Average read queue length when enqueuing
system.mem_ctrls.avgWrQLen                      18.68                       # Average write queue length when enqueuing
system.mem_ctrls.totQLat                   2453149500                       # Total ticks spent queuing
system.mem_ctrls.totBusLat                 1325130000                       # Total ticks spent in databus transfers
system.mem_ctrls.totMemAccLat              7422387000                       # Total ticks spent from burst creation until serviced by the DRAM
system.mem_ctrls.avgQLat                      9256.26                       # Average queueing delay per DRAM burst
system.mem_ctrls.avgBusLat                    5000.00                       # Average bus latency per DRAM burst
system.mem_ctrls.avgMemAccLat                28006.26                       # Average memory access latency per DRAM burst
system.mem_ctrls.numRdRetry                         0                       # Number of times read queue was full causing retry
system.mem_ctrls.numWrRetry                         0                       # Number of times write queue was full causing retry
system.mem_ctrls.readRowHits                   242639                       # Number of row buffer hits during reads
system.mem_ctrls.writeRowHits                  184642                       # Number of row buffer hits during writes
system.mem_ctrls.readRowHitRate                 91.55                       # Row buffer hit rate for reads
system.mem_ctrls.writeRowHitRate                92.81                       # Row buffer hit rate for writes
system.mem_ctrls.readPktSize::0                     0                       # Read request sizes (log2)
system.mem_ctrls.readPktSize::1                     0                       # Read request sizes (log2)
system.mem_ctrls.readPktSize::2                     0                       # Read request sizes (log2)
system.mem_ctrls.readPktSize::3                     0                       # Read request sizes (log2)
system.mem_ctrls.readPktSize::4                     0                       # Read request sizes (log2)
system.mem_ctrls.readPktSize::5                     0                       # Read request sizes (log2)
system.mem_ctrls.readPktSize::6                265026                       # Read request sizes (log2)
system.mem_ctrls.writePktSize::0                    0                       # Write request sizes (log2)
system.mem_ctrls.writePktSize::1                    0                       # Write request sizes (log2)
system.mem_ctrls.writePktSize::2                    0                       # Write request sizes (log2)
system.mem_ctrls.writePktSize::3                    0                       # Write request sizes (log2)
system.mem_ctrls.writePktSize::4                    0                       # Write request sizes (log2)
system.mem_ctrls.writePktSize::5                    0                       # Write request sizes (log2)
system.mem_ctrls.writePktSize::6               198950                       # Write request sizes (log2)
system.mem_ctrls.rdQLenPdf::0                  264112                       # What read queue length does an incoming req see
system.mem_ctrls.rdQLenPdf::1                     897                       # What read queue length does an incoming req see
system.mem_ctrls.rdQLenPdf::2                      15                       # What read queue length does an incoming req see
system.mem_ctrls.rdQLenPdf::3                       1                       # What read queue length does an incoming req see
system.mem_ctrls.rdQLenPdf::4                       1                       # What read queue length does an incoming req see
system.mem_ctrls.rdQLenPdf::5                       0                       # What read queue length does an incoming req see
system.mem_ctrls.rdQLenPdf::6                       0                       # What read queue length does an incoming req see
system.mem_ctrls.rdQLenPdf::7                       0                       # What read queue length does an incoming req see
system.mem_ctrls.rdQLenPdf::8                       0                       # What read queue length does an incoming req see
system.mem_ctrls.rdQLenPdf::9                       0                       # What read queue length does an incoming req see
system.mem_ctrls.rdQLenPdf::10                      0                       # What read queue length does an incoming req see
system.mem_ctrls.rdQLenPdf::11                      0                       # What read queue length does an incoming req see
system.mem_ctrls.rdQLenPdf::12                      0                       # What read queue length does an incoming req see
system.mem_ctrls.rdQLenPdf::13                      0                       # What read queue length does an incoming req see
system.mem_ctrls.rdQLenPdf::14                      0                       # What read queue length does an incoming req see
system.mem_ctrls.rdQLenPdf::15                      0                       # What read queue length does an incoming req see
system.mem_ctrls.rdQLenPdf::16                      0                       # What read queue length does an incoming req see
system.mem_ctrls.rdQLenPdf::17                      0                       # What read queue length does an incoming req see
system.mem_ctrls.rdQLenPdf::18                      0                       # What read queue length does an incoming req see
system.mem_ctrls.rdQLenPdf::19                      0                       # What read queue length does an incoming req see
system.mem_ctrls.rdQLenPdf::20                      0                       # What read queue length does an incoming req see
system.mem_ctrls.rdQLenPdf::21                      0                       # What read queue length does an incoming req see
system.mem_ctrls.rdQLenPdf::22                      0                       # What read queue length does an incoming req see
system.mem_ctrls.rdQLenPdf::23                      0                       # What read queue length does an incoming req see
system.mem_ctrls.rdQLenPdf::24                      0                       # What read queue length does an incoming req see
system.mem_ctrls.rdQLenPdf::25                      0                       # What read queue length does an incoming req see
system.mem_ctrls.rdQLenPdf::26                      0                       # What read queue length does an incoming req see
system.mem_ctrls.rdQLenPdf::27                      0                       # What read queue length does an incoming req see
system.mem_ctrls.rdQLenPdf::28                      0                       # What read queue length does an incoming req see
system.mem_ctrls.rdQLenPdf::29                      0                       # What read queue length does an incoming req see
system.mem_ctrls.rdQLenPdf::30                      0                       # What read queue length does an incoming req see
system.mem_ctrls.rdQLenPdf::31                      0                       # What read queue length does an incoming req see
system.mem_ctrls.wrQLenPdf::0                       1                       # What write queue length does an incoming req see
system.mem_ctrls.wrQLenPdf::1                       1                       # What write queue length does an incoming req see
system.mem_ctrls.wrQLenPdf::2                       1                       # What write queue length does an incoming req see
system.mem_ctrls.wrQLenPdf::3                       1                       # What write queue length does an incoming req see
system.mem_ctrls.wrQLenPdf::4                       1                       # What write queue length does an incoming req see
system.mem_ctrls.wrQLenPdf::5                       1                       # What write queue length does an incoming req see
system.mem_ctrls.wrQLenPdf::6                       1                       # What write queue length does an incoming req see
system.mem_ctrls.wrQLenPdf::7                       1                       # What write queue length does an incoming req see
system.mem_ctrls.wrQLenPdf::8                       1                       # What write queue length does an incoming req see
system.mem_ctrls.wrQLenPdf::9                       1                       # What write queue length does an incoming req see
system.mem_ctrls.wrQLenPdf::10                      1                       # What write queue length does an incoming req see
system.mem_ctrls.wrQLenPdf::11                      1                       # What write queue length does an incoming req see
system.mem_ctrls.wrQLenPdf::12                      1                       # What write queue length does an incoming req see
system.mem_ctrls.wrQLenPdf::13                      1                       # What write queue length does an incoming req see
system.mem_ctrls.wrQLenPdf::14                      1                       # What write queue length does an incoming req see
system.mem_ctrls.wrQLenPdf::15                     22                       # What write queue length does an incoming req see
system.mem_ctrls.wrQLenPdf::16                     22                       # What write queue length does an incoming req see
system.mem_ctrls.wrQLenPdf::17                  12296                       # What write queue length does an incoming req see
system.mem_ctrls.wrQLenPdf::18                  12431                       # What write queue length does an incoming req see
system.mem_ctrls.wrQLenPdf::19                  12430                       # What write queue length does an incoming req see
system.mem_ctrls.wrQLenPdf::20                  12430                       # What write queue length does an incoming req see
system.mem_ctrls.wrQLenPdf::21                  12430                       # What write queue length does an incoming req see
system.mem_ctrls.wrQLenPdf::22                  12430                       # What write queue length does an incoming req see
system.mem_ctrls.wrQLenPdf::23                  12430                       # What write queue length does an incoming req see
system.mem_ctrls.wrQLenPdf::24                  12429                       # What write queue length does an incoming req see
system.mem_ctrls.wrQLenPdf::25                  12582                       # What write queue length does an incoming req see
system.mem_ctrls.wrQLenPdf::26                  12429                       # What write queue length does an incoming req see
system.mem_ctrls.wrQLenPdf::27                  12429                       # What write queue length does an incoming req see
system.mem_ctrls.wrQLenPdf::28                  12429                       # What write queue length does an incoming req see
system.mem_ctrls.wrQLenPdf::29                  12429                       # What write queue length does an incoming req see
system.mem_ctrls.wrQLenPdf::30                  12429                       # What write queue length does an incoming req see
system.mem_ctrls.wrQLenPdf::31                  12429                       # What write queue length does an incoming req see
system.mem_ctrls.wrQLenPdf::32                  12429                       # What write queue length does an incoming req see
system.mem_ctrls.wrQLenPdf::33                      0                       # What write queue length does an incoming req see
system.mem_ctrls.wrQLenPdf::34                      0                       # What write queue length does an incoming req see
system.mem_ctrls.wrQLenPdf::35                      0                       # What write queue length does an incoming req see
system.mem_ctrls.wrQLenPdf::36                      0                       # What write queue length does an incoming req see
system.mem_ctrls.wrQLenPdf::37                      0                       # What write queue length does an incoming req see
system.mem_ctrls.wrQLenPdf::38                      0                       # What write queue length does an incoming req see
system.mem_ctrls.wrQLenPdf::39                      0                       # What write queue length does an incoming req see
system.mem_ctrls.wrQLenPdf::40                      0                       # What write queue length does an incoming req see
system.mem_ctrls.wrQLenPdf::41                      0                       # What write queue length does an incoming req see
system.mem_ctrls.wrQLenPdf::42                      0                       # What write queue length does an incoming req see
system.mem_ctrls.wrQLenPdf::43                      0                       # What write queue length does an incoming req see
system.mem_ctrls.wrQLenPdf::44                      0                       # What write queue length does an incoming req see
system.mem_ctrls.wrQLenPdf::45                      0                       # What write queue length does an incoming req see
system.mem_ctrls.wrQLenPdf::46                      0                       # What write queue length does an incoming req see
system.mem_ctrls.wrQLenPdf::47                      0                       # What write queue length does an incoming req see
system.mem_ctrls.wrQLenPdf::48                      0                       # What write queue length does an incoming req see
system.mem_ctrls.wrQLenPdf::49                      0                       # What write queue length does an incoming req see
system.mem_ctrls.wrQLenPdf::50                      0                       # What write queue length does an incoming req see
system.mem_ctrls.wrQLenPdf::51                      0                       # What write queue length does an incoming req see
system.mem_ctrls.wrQLenPdf::52                      0                       # What write queue length does an incoming req see
system.mem_ctrls.wrQLenPdf::53                      0                       # What write queue length does an incoming req see
system.mem_ctrls.wrQLenPdf::54                      0                       # What write queue length does an incoming req see
system.mem_ctrls.wrQLenPdf::55                      0                       # What write queue length does an incoming req see
system.mem_ctrls.wrQLenPdf::56                      0                       # What write queue length does an incoming req see
system.mem_ctrls.wrQLenPdf::57                      0                       # What write queue length does an incoming req see
system.mem_ctrls.wrQLenPdf::58                      0                       # What write queue length does an incoming req see
system.mem_ctrls.wrQLenPdf::59                      0                       # What write queue length does an incoming req see
system.mem_ctrls.wrQLenPdf::60                      0                       # What write queue length does an incoming req see
system.mem_ctrls.wrQLenPdf::61                      0                       # What write queue length does an incoming req see
system.mem_ctrls.wrQLenPdf::62                      0                       # What write queue length does an incoming req see
system.mem_ctrls.wrQLenPdf::63                      0                       # What write queue length does an incoming req see
system.mem_ctrls.bytesPerActivate::samples        36671                       # Bytes accessed per row activation
system.mem_ctrls.bytesPerActivate::mean    809.702708                       # Bytes accessed per row activation
system.mem_ctrls.bytesPerActivate::gmean   668.549771                       # Bytes accessed per row activation
system.mem_ctrls.bytesPerActivate::stdev   329.328576                       # Bytes accessed per row activation
system.mem_ctrls.bytesPerActivate::0-127         2464      6.72%      6.72% # Bytes accessed per row activation
system.mem_ctrls.bytesPerActivate::128-255         1271      3.47%     10.19% # Bytes accessed per row activation
system.mem_ctrls.bytesPerActivate::256-383         1992      5.43%     15.62% # Bytes accessed per row activation
system.mem_ctrls.bytesPerActivate::384-511         1909      5.21%     20.82% # Bytes accessed per row activation
system.mem_ctrls.bytesPerActivate::512-639         1471      4.01%     24.83% # Bytes accessed per row activation
system.mem_ctrls.bytesPerActivate::640-767         1833      5.00%     29.83% # Bytes accessed per row activation
system.mem_ctrls.bytesPerActivate::768-895         1392      3.80%     33.63% # Bytes accessed per row activation
system.mem_ctrls.bytesPerActivate::896-1023         1062      2.90%     36.52% # Bytes accessed per row activation
system.mem_ctrls.bytesPerActivate::1024-1151        23277     63.48%    100.00% # Bytes accessed per row activation
system.mem_ctrls.bytesPerActivate::total        36671                       # Bytes accessed per row activation
system.mem_ctrls.rdPerTurnAround::samples        12429                       # Reads before turning the bus around for writes
system.mem_ctrls.rdPerTurnAround::mean      21.322713                       # Reads before turning the bus around for writes
system.mem_ctrls.rdPerTurnAround::gmean     16.086510                       # Reads before turning the bus around for writes
system.mem_ctrls.rdPerTurnAround::stdev    549.305809                       # Reads before turning the bus around for writes
system.mem_ctrls.rdPerTurnAround::0-2047        12428     99.99%     99.99% # Reads before turning the bus around for writes
system.mem_ctrls.rdPerTurnAround::59392-61439            1      0.01%    100.00% # Reads before turning the bus around for writes
system.mem_ctrls.rdPerTurnAround::total         12429                       # Reads before turning the bus around for writes
system.mem_ctrls.wrPerTurnAround::samples        12429                       # Writes before turning the bus around for reads
system.mem_ctrls.wrPerTurnAround::mean      16.005069                       # Writes before turning the bus around for reads
system.mem_ctrls.wrPerTurnAround::gmean     16.004646                       # Writes before turning the bus around for reads
system.mem_ctrls.wrPerTurnAround::stdev      0.123215                       # Writes before turning the bus around for reads
system.mem_ctrls.wrPerTurnAround::16            12408     99.83%     99.83% # Writes before turning the bus around for reads
system.mem_ctrls.wrPerTurnAround::19               21      0.17%    100.00% # Writes before turning the bus around for reads
system.mem_ctrls.wrPerTurnAround::total         12429                       # Writes before turning the bus around for reads
system.mem_ctrls.bytesReadDRAM               16961664                       # Total number of bytes read from DRAM
system.mem_ctrls.bytesReadWrQ                       0                       # Total number of bytes read from write queue
system.mem_ctrls.bytesWritten                12731328                       # Total number of bytes written to DRAM
[...]
system.cpu.icache.ReadReq_miss_rate::total     0.000226                       # miss rate for ReadReq accesses
system.cpu.icache.ReadReq_avg_miss_latency::.cpu.inst 76776.595745                       # average ReadReq miss latency
system.cpu.icache.ReadReq_avg_miss_latency::total 76776.595745                       # average ReadReq miss latency
system.cpu.icache.ReadReq_mshr_misses::.cpu.inst          423                       # number of ReadReq MSHR misses
system.cpu.icache.ReadReq_mshr_misses::total          423                       # number of ReadReq MSHR misses
system.cpu.icache.ReadReq_mshr_miss_latency::.cpu.inst     32053500                       # number of ReadReq MSHR miss cycles
system.cpu.icache.ReadReq_mshr_miss_latency::total     32053500                       # number of ReadReq MSHR miss cycles
system.cpu.icache.ReadReq_mshr_miss_rate::.cpu.inst     0.000226                       # mshr miss rate for ReadReq accesses
system.cpu.icache.ReadReq_mshr_miss_rate::total     0.000226                       # mshr miss rate for ReadReq accesses
system.cpu.icache.ReadReq_avg_mshr_miss_latency::.cpu.inst 75776.595745                       # average ReadReq mshr miss latency
system.cpu.icache.ReadReq_avg_mshr_miss_latency::total 75776.595745                       # average ReadReq mshr miss latency
system.cpu.icache.tags.pwrStateResidencyTicks::UNDEFINED  27941325500                       # Cumulative time (in ticks) in various power states
system.cpu.icache.tags.tagsinuse           415.616190                       # Cycle average of tags in use
system.cpu.icache.tags.total_refs             1871057                       # Total number of references to valid blocks.
system.cpu.icache.tags.sampled_refs               423                       # Sample count of references to valid blocks.
system.cpu.icache.tags.avg_refs           4423.302600                       # Average number of references to valid blocks.
system.cpu.icache.tags.warmup_cycle             87500                       # Cycle when the warmup percentage was hit.
system.cpu.icache.tags.occ_blocks::.cpu.inst   415.616190                       # Average occupied blocks per requestor
system.cpu.icache.tags.occ_percent::.cpu.inst     0.101469                       # Average percentage of cache occupancy
system.cpu.icache.tags.occ_percent::total     0.101469                       # Average percentage of cache occupancy
system.cpu.icache.tags.occ_task_id_blocks::1024          423                       # Occupied blocks per task id
system.cpu.icache.tags.age_task_id_blocks_1024::4          423                       # Occupied blocks per task id
system.cpu.icache.tags.occ_task_id_percent::1024     0.103271                       # Percentage of cache occupancy per task id
system.cpu.icache.tags.tag_accesses           7484651                       # Number of tag accesses
system.cpu.icache.tags.data_accesses          7484651                       # Number of data accesses
system.cpu.dtb.walker.pwrStateResidencyTicks::UNDEFINED  27941325500                       # Cumulative time (in ticks) in various power states
system.cpu.dtb.stage2_mmu.stage2_tlb.walker.pwrStateResidencyTicks::UNDEFINED  27941325500                       # Cumulative time (in ticks) in various power states
system.cpu.dcache.pwrStateResidencyTicks::UNDEFINED  27941325500                       # Cumulative time (in ticks) in various power states
system.cpu.dcache.demand_hits::.cpu.data      5866276                       # number of demand (read+write) hits
system.cpu.dcache.demand_hits::total          5866276                       # number of demand (read+write) hits
system.cpu.dcache.overall_hits::.cpu.data      5866305                       # number of overall hits
system.cpu.dcache.overall_hits::total         5866305                       # number of overall hits
system.cpu.dcache.demand_misses::.cpu.data       526574                       # number of demand (read+write) misses
system.cpu.dcache.demand_misses::total         526574                       # number of demand (read+write) misses
system.cpu.dcache.overall_misses::.cpu.data       526602                       # number of overall misses
system.cpu.dcache.overall_misses::total        526602                       # number of overall misses
system.cpu.dcache.demand_miss_latency::.cpu.data  42907905000                       # number of demand (read+write) miss cycles
system.cpu.dcache.demand_miss_latency::total  42907905000                       # number of demand (read+write) miss cycles
system.cpu.dcache.overall_miss_latency::.cpu.data  42907905000                       # number of overall miss cycles
system.cpu.dcache.overall_miss_latency::total  42907905000                       # number of overall miss cycles
system.cpu.dcache.demand_accesses::.cpu.data      6392850                       # number of demand (read+write) accesses
system.cpu.dcache.demand_accesses::total      6392850                       # number of demand (read+write) accesses
system.cpu.dcache.overall_accesses::.cpu.data      6392907                       # number of overall (read+write) accesses
system.cpu.dcache.overall_accesses::total      6392907                       # number of overall (read+write) accesses
system.cpu.dcache.demand_miss_rate::.cpu.data     0.082369                       # miss rate for demand accesses
system.cpu.dcache.demand_miss_rate::total     0.082369                       # miss rate for demand accesses
system.cpu.dcache.overall_miss_rate::.cpu.data     0.082373                       # miss rate for overall accesses
system.cpu.dcache.overall_miss_rate::total     0.082373                       # miss rate for overall accesses
system.cpu.dcache.demand_avg_miss_latency::.cpu.data 81485.042938                       # average overall miss latency
system.cpu.dcache.demand_avg_miss_latency::total 81485.042938                       # average overall miss latency
system.cpu.dcache.overall_avg_miss_latency::.cpu.data 81480.710290                       # average overall miss latency
system.cpu.dcache.overall_avg_miss_latency::total 81480.710290                       # average overall miss latency
system.cpu.dcache.blocked_cycles::no_mshrs          212                       # number of cycles access was blocked
system.cpu.dcache.blocked_cycles::no_targets            0                       # number of cycles access was blocked
system.cpu.dcache.blocked::no_mshrs                 3                       # number of cycles access was blocked
system.cpu.dcache.blocked::no_targets               0                       # number of cycles access was blocked
system.cpu.dcache.avg_blocked_cycles::no_mshrs    70.666667                       # average number of cycles each access was blocked
system.cpu.dcache.avg_blocked_cycles::no_targets          nan                       # average number of cycles each access was blocked
system.cpu.dcache.writebacks::.writebacks       262457                       # number of writebacks
system.cpu.dcache.writebacks::total            262457                       # number of writebacks
system.cpu.dcache.demand_mshr_hits::.cpu.data       261926                       # number of demand (read+write) MSHR hits
system.cpu.dcache.demand_mshr_hits::total       261926                       # number of demand (read+write) MSHR hits
system.cpu.dcache.overall_mshr_hits::.cpu.data       261926                       # number of overall MSHR hits
system.cpu.dcache.overall_mshr_hits::total       261926                       # number of overall MSHR hits
system.cpu.dcache.demand_mshr_misses::.cpu.data       264648                       # number of demand (read+write) MSHR misses
system.cpu.dcache.demand_mshr_misses::total       264648                       # number of demand (read+write) MSHR misses
system.cpu.dcache.overall_mshr_misses::.cpu.data       264672                       # number of overall MSHR misses
system.cpu.dcache.overall_mshr_misses::total       264672                       # number of overall MSHR misses
system.cpu.dcache.demand_mshr_miss_latency::.cpu.data  21241073500                       # number of demand (read+write) MSHR miss cycles
system.cpu.dcache.demand_mshr_miss_latency::total  21241073500                       # number of demand (read+write) MSHR miss cycles
system.cpu.dcache.overall_mshr_miss_latency::.cpu.data  21242917500                       # number of overall MSHR miss cycles
system.cpu.dcache.overall_mshr_miss_latency::total  21242917500                       # number of overall MSHR miss cycles
system.cpu.dcache.demand_mshr_miss_rate::.cpu.data     0.041397                       # mshr miss rate for demand accesses
system.cpu.dcache.demand_mshr_miss_rate::total     0.041397                       # mshr miss rate for demand accesses
system.cpu.dcache.overall_mshr_miss_rate::.cpu.data     0.041401                       # mshr miss rate for overall accesses
system.cpu.dcache.overall_mshr_miss_rate::total     0.041401                       # mshr miss rate for overall accesses
system.cpu.dcache.demand_avg_mshr_miss_latency::.cpu.data 80261.605982                       # average overall mshr miss latency
system.cpu.dcache.demand_avg_mshr_miss_latency::total 80261.605982                       # average overall mshr miss latency
system.cpu.dcache.overall_avg_mshr_miss_latency::.cpu.data 80261.295112                       # average overall mshr miss latency
system.cpu.dcache.overall_avg_mshr_miss_latency::total 80261.295112                       # average overall mshr miss latency
system.cpu.dcache.replacements                 262624                       # number of replacements
system.cpu.dcache.ReadReq_hits::.cpu.data      2035004                       # number of ReadReq hits
system.cpu.dcache.ReadReq_hits::total         2035004                       # number of ReadReq hits
system.cpu.dcache.ReadReq_misses::.cpu.data          177                       # number of ReadReq misses
system.cpu.dcache.ReadReq_misses::total           177                       # number of ReadReq misses
system.cpu.dcache.ReadReq_miss_latency::.cpu.data     12283000                       # number of ReadReq miss cycles
system.cpu.dcache.ReadReq_miss_latency::total     12283000                       # number of ReadReq miss cycles
system.cpu.dcache.ReadReq_accesses::.cpu.data      2035181                       # number of ReadReq accesses(hits+misses)
system.cpu.dcache.ReadReq_accesses::total      2035181                       # number of ReadReq accesses(hits+misses)
system.cpu.dcache.ReadReq_miss_rate::.cpu.data     0.000087                       # miss rate for ReadReq accesses
system.cpu.dcache.ReadReq_miss_rate::total     0.000087                       # miss rate for ReadReq accesses
system.cpu.dcache.ReadReq_avg_miss_latency::.cpu.data 69395.480226                       # average ReadReq miss latency
system.cpu.dcache.ReadReq_avg_miss_latency::total 69395.480226                       # average ReadReq miss latency
system.cpu.dcache.ReadReq_mshr_hits::.cpu.data           11                       # number of ReadReq MSHR hits
system.cpu.dcache.ReadReq_mshr_hits::total           11                       # number of ReadReq MSHR hits
system.cpu.dcache.ReadReq_mshr_misses::.cpu.data          166                       # number of ReadReq MSHR misses
system.cpu.dcache.ReadReq_mshr_misses::total          166                       # number of ReadReq MSHR misses
system.cpu.dcache.ReadReq_mshr_miss_latency::.cpu.data     11332000                       # number of ReadReq MSHR miss cycles
system.cpu.dcache.ReadReq_mshr_miss_latency::total     11332000                       # number of ReadReq MSHR miss cycles
system.cpu.dcache.ReadReq_mshr_miss_rate::.cpu.data     0.000082                       # mshr miss rate for ReadReq accesses
system.cpu.dcache.ReadReq_mshr_miss_rate::total     0.000082                       # mshr miss rate for ReadReq accesses
system.cpu.dcache.ReadReq_avg_mshr_miss_latency::.cpu.data 68265.060241                       # average ReadReq mshr miss latency
system.cpu.dcache.ReadReq_avg_mshr_miss_latency::total 68265.060241                       # average ReadReq mshr miss latency
system.cpu.dcache.WriteReq_hits::.cpu.data      3831272                       # number of WriteReq hits
system.cpu.dcache.WriteReq_hits::total        3831272                       # number of WriteReq hits
system.cpu.dcache.WriteReq_misses::.cpu.data       526397                       # number of WriteReq misses
system.cpu.dcache.WriteReq_misses::total       526397                       # number of WriteReq misses
system.cpu.dcache.WriteReq_miss_latency::.cpu.data  42895622000                       # number of WriteReq miss cycles
system.cpu.dcache.WriteReq_miss_latency::total  42895622000                       # number of WriteReq miss cycles
system.cpu.dcache.WriteReq_accesses::.cpu.data      4357669                       # number of WriteReq accesses(hits+misses)
system.cpu.dcache.WriteReq_accesses::total      4357669                       # number of WriteReq accesses(hits+misses)
system.cpu.dcache.WriteReq_miss_rate::.cpu.data     0.120798                       # miss rate for WriteReq accesses
system.cpu.dcache.WriteReq_miss_rate::total     0.120798                       # miss rate for WriteReq accesses
system.cpu.dcache.WriteReq_avg_miss_latency::.cpu.data 81489.108031                       # average WriteReq miss latency
system.cpu.dcache.WriteReq_avg_miss_latency::total 81489.108031                       # average WriteReq miss latency
system.cpu.dcache.WriteReq_mshr_hits::.cpu.data       261915                       # number of WriteReq MSHR hits
system.cpu.dcache.WriteReq_mshr_hits::total       261915                       # number of WriteReq MSHR hits
system.cpu.dcache.WriteReq_mshr_misses::.cpu.data       264482                       # number of WriteReq MSHR misses
system.cpu.dcache.WriteReq_mshr_misses::total       264482                       # number of WriteReq MSHR misses
system.cpu.dcache.WriteReq_mshr_miss_latency::.cpu.data  21229741500                       # number of WriteReq MSHR miss cycles
system.cpu.dcache.WriteReq_mshr_miss_latency::total  21229741500                       # number of WriteReq MSHR miss cycles
system.cpu.dcache.WriteReq_mshr_miss_rate::.cpu.data     0.060693                       # mshr miss rate for WriteReq accesses
system.cpu.dcache.WriteReq_mshr_miss_rate::total     0.060693                       # mshr miss rate for WriteReq accesses
system.cpu.dcache.WriteReq_avg_mshr_miss_latency::.cpu.data 80269.135518                       # average WriteReq mshr miss latency
system.cpu.dcache.WriteReq_avg_mshr_miss_latency::total 80269.135518                       # average WriteReq mshr miss latency
system.cpu.dcache.SoftPFReq_hits::.cpu.data           29                       # number of SoftPFReq hits
system.cpu.dcache.SoftPFReq_hits::total            29                       # number of SoftPFReq hits
system.cpu.dcache.SoftPFReq_misses::.cpu.data           28                       # number of SoftPFReq misses
system.cpu.dcache.SoftPFReq_misses::total           28                       # number of SoftPFReq misses
system.cpu.dcache.SoftPFReq_accesses::.cpu.data           57                       # number of SoftPFReq accesses(hits+misses)
system.cpu.dcache.SoftPFReq_accesses::total           57                       # number of SoftPFReq accesses(hits+misses)
system.cpu.dcache.SoftPFReq_miss_rate::.cpu.data     0.491228                       # miss rate for SoftPFReq accesses
system.cpu.dcache.SoftPFReq_miss_rate::total     0.491228                       # miss rate for SoftPFReq accesses
system.cpu.dcache.SoftPFReq_mshr_misses::.cpu.data           24                       # number of SoftPFReq MSHR misses
system.cpu.dcache.SoftPFReq_mshr_misses::total           24                       # number of SoftPFReq MSHR misses
system.cpu.dcache.SoftPFReq_mshr_miss_latency::.cpu.data      1844000                       # number of SoftPFReq MSHR miss cycles
system.cpu.dcache.SoftPFReq_mshr_miss_latency::total      1844000                       # number of SoftPFReq MSHR miss cycles
system.cpu.dcache.SoftPFReq_mshr_miss_rate::.cpu.data     0.421053                       # mshr miss rate for SoftPFReq accesses
system.cpu.dcache.SoftPFReq_mshr_miss_rate::total     0.421053                       # mshr miss rate for SoftPFReq accesses
system.cpu.dcache.SoftPFReq_avg_mshr_miss_latency::.cpu.data 76833.333333                       # average SoftPFReq mshr miss latency
system.cpu.dcache.SoftPFReq_avg_mshr_miss_latency::total 76833.333333                       # average SoftPFReq mshr miss latency
system.cpu.dcache.LoadLockedReq_hits::.cpu.data           20                       # number of LoadLockedReq hits
system.cpu.dcache.LoadLockedReq_hits::total           20                       # number of LoadLockedReq hits
system.cpu.dcache.LoadLockedReq_accesses::.cpu.data           20                       # number of LoadLockedReq accesses(hits+misses)
system.cpu.dcache.LoadLockedReq_accesses::total           20                       # number of LoadLockedReq accesses(hits+misses)
system.cpu.dcache.StoreCondReq_hits::.cpu.data           20                       # number of StoreCondReq hits
system.cpu.dcache.StoreCondReq_hits::total           20                       # number of StoreCondReq hits
system.cpu.dcache.StoreCondReq_accesses::.cpu.data           20                       # number of StoreCondReq accesses(hits+misses)
system.cpu.dcache.StoreCondReq_accesses::total           20                       # number of StoreCondReq accesses(hits+misses)
system.cpu.dcache.tags.pwrStateResidencyTicks::UNDEFINED  27941325500                       # Cumulative time (in ticks) in various power states
system.cpu.dcache.tags.tagsinuse          2000.360855                       # Cycle average of tags in use
system.cpu.dcache.tags.total_refs             6131017                       # Total number of references to valid blocks.
system.cpu.dcache.tags.sampled_refs            264672                       # Sample count of references to valid blocks.
system.cpu.dcache.tags.avg_refs             23.164585                       # Average number of references to valid blocks.
system.cpu.dcache.tags.warmup_cycle            176500                       # Cycle when the warmup percentage was hit.
system.cpu.dcache.tags.occ_blocks::.cpu.data  2000.360855                       # Average occupied blocks per requestor
system.cpu.dcache.tags.occ_percent::.cpu.data     0.976739                       # Average percentage of cache occupancy
system.cpu.dcache.tags.occ_percent::total     0.976739                       # Average percentage of cache occupancy
system.cpu.dcache.tags.occ_task_id_blocks::1024         2048                       # Occupied blocks per task id
system.cpu.dcache.tags.age_task_id_blocks_1024::0          103                       # Occupied blocks per task id
system.cpu.dcache.tags.age_task_id_blocks_1024::1          927                       # Occupied blocks per task id
system.cpu.dcache.tags.age_task_id_blocks_1024::2         1018                       # Occupied blocks per task id
system.cpu.dcache.tags.occ_task_id_percent::1024            1                       # Percentage of cache occupancy per task id
system.cpu.dcache.tags.tag_accesses          25836460                       # Number of tag accesses
system.cpu.dcache.tags.data_accesses         25836460                       # Number of data accesses
system.cpu.itb.walker.pwrStateResidencyTicks::UNDEFINED  27941325500                       # Cumulative time (in ticks) in various power states
system.cpu.itb.stage2_mmu.stage2_tlb.walker.pwrStateResidencyTicks::UNDEFINED  27941325500                       # Cumulative time (in ticks) in various power states

---------- End Simulation Statistics   ----------
