
---------- Begin Simulation Statistics ----------
final_tick                                13637676500                       # Number of ticks from beginning of simulation (restored from checkpoints and never reset)
host_inst_rate                                  97800                       # Simulator instruction rate (inst/s)
host_mem_usage                                 696288                       # Number of bytes of host memory used
host_op_rate                                    98077                       # Simulator op (including micro ops) rate (op/s)
host_seconds                                   102.25                       # Real time elapsed on the host
host_tick_rate                              133376523                       # Simulator tick rate (ticks/s)
sim_freq                                 1000000000000                       # Frequency of simulated ticks
sim_insts                                    10000000                       # Number of instructions simulated
sim_ops                                      10028308                       # Number of ops (including micro ops) simulated
sim_seconds                                  0.013638                       # Number of seconds simulated
sim_ticks                                 13637676500                       # Number of ticks simulated
system.cpu.branchPred.BTBCorrect                    0                       # Number of correct BTB predictions (this stat may not work properly.
system.cpu.branchPred.BTBHitPct             98.808866                       # BTB Hit Percentage
system.cpu.branchPred.BTBHits                  300292                       # Number of BTB hits
system.cpu.branchPred.BTBLookups               303912                       # Number of BTB lookups
system.cpu.branchPred.RASInCorrect                  5                       # Number of incorrect RAS predictions.
system.cpu.branchPred.condIncorrect              7161                       # Number of conditional branches incorrect
system.cpu.branchPred.condPredicted            603831                       # Number of conditional branches predicted
system.cpu.branchPred.indirectHits                127                       # Number of indirect target hits.
system.cpu.branchPred.indirectLookups             398                       # Number of indirect predictor lookups.
system.cpu.branchPred.indirectMisses              271                       # Number of indirect misses.
system.cpu.branchPred.lookups                  716757                       # Number of BP lookups
system.cpu.branchPred.usedRAS                    6940                       # Number of times the RAS was used to get a target.
system.cpu.branchPredindirectMispredicted          171                       # Number of mispredicted indirect branches.
system.cpu.committedInsts                    10000000                       # Number of instructions committed
system.cpu.committedOps                      10028308                       # Number of ops (including micro ops) committed
system.cpu.cpi                               2.727535                       # CPI: cycles per instruction
system.cpu.discardedOps                         15352                       # Number of ops (including micro ops) which were discarded before commit
system.cpu.dtb.accesses                             0                       # DTB accesses
system.cpu.dtb.align_faults                         0                       # Number of TLB faults due to alignment restrictions
system.cpu.dtb.domain_faults                        0                       # Number of TLB faults due to domain restrictions
system.cpu.dtb.flush_entries                        0                       # Number of entries that have been flushed from TLB
system.cpu.dtb.flush_tlb                            0                       # Number of times complete TLB was flushed
system.cpu.dtb.flush_tlb_asid                       0                       # Number of times TLB was flushed by ASID
system.cpu.dtb.flush_tlb_mva                        0                       # Number of times TLB was flushed by MVA
system.cpu.dtb.flush_tlb_mva_asid                   0                       # Number of times TLB was flushed by MVA & ASID
system.cpu.dtb.hits                                 0                       # DTB hits
system.cpu.dtb.inst_accesses                        0                       # ITB inst accesses
system.cpu.dtb.inst_hits                            0                       # ITB inst hits
system.cpu.dtb.inst_misses                          0                       # ITB inst misses
system.cpu.dtb.misses                               0                       # DTB misses
system.cpu.dtb.perms_faults                         0                       # Number of TLB faults due to permissions restrictions
system.cpu.dtb.prefetch_faults                      0                       # Number of TLB faults due to prefetch
system.cpu.dtb.read_accesses                        0                       # DTB read accesses
system.cpu.dtb.read_hits                            0                       # DTB read hits
system.cpu.dtb.read_misses                          0                       # DTB read misses
system.cpu.dtb.stage2_mmu.stage2_tlb.accesses            0                       # DTB accesses
system.cpu.dtb.stage2_mmu.stage2_tlb.align_faults            0                       # Number of TLB faults due to alignment restrictions
system.cpu.dtb.stage2_mmu.stage2_tlb.domain_faults            0                       # Number of TLB faults due to domain restrictions
system.cpu.dtb.stage2_mmu.stage2_tlb.flush_entries            0                       # Number of entries that have been flushed from TLB
system.cpu.dtb.stage2_mmu.stage2_tlb.flush_tlb            0                       # Number of times complete TLB was flushed
system.cpu.dtb.stage2_mmu.stage2_tlb.flush_tlb_asid            0                       # Number of times TLB was flushed by ASID
system.cpu.dtb.stage2_mmu.stage2_tlb.flush_tlb_mva            0                       # Number of times TLB was flushed by MVA
system.cpu.dtb.stage2_mmu.stage2_tlb.flush_tlb_mva_asid            0                       # Number of times TLB was flushed by MVA & ASID
system.cpu.dtb.stage2_mmu.stage2_tlb.hits            0                       # DTB hits
system.cpu.dtb.stage2_mmu.stage2_tlb.inst_accesses            0                       # ITB inst accesses
system.cpu.dtb.stage2_mmu.stage2_tlb.inst_hits            0                       # ITB inst hits
system.cpu.dtb.stage2_mmu.stage2_tlb.inst_misses            0                       # ITB inst misses
system.cpu.dtb.stage2_mmu.stage2_tlb.misses            0                       # DTB misses
system.cpu.dtb.stage2_mmu.stage2_tlb.perms_faults            0                       # Number of TLB faults due to permissions restrictions
system.cpu.dtb.stage2_mmu.stage2_tlb.prefetch_faults            0                       # Number of TLB faults due to prefetch
system.cpu.dtb.stage2_mmu.stage2_tlb.read_accesses            0                       # DTB read accesses
system.cpu.dtb.stage2_mmu.stage2_tlb.read_hits            0                       # DTB read hits
system.cpu.dtb.stage2_mmu.stage2_tlb.read_misses            0                       # DTB read misses
system.cpu.dtb.stage2_mmu.stage2_tlb.walker.walkRequestOrigin_Requested::Data            0                       # Table walker requests started/completed, data/inst
system.cpu.dtb.stage2_mmu.stage2_tlb.walker.walkRequestOrigin_Requested::Inst            0                       # Table walker requests started/completed, data/inst
system.cpu.dtb.stage2_mmu.stage2_tlb.walker.walkRequestOrigin_Requested::total            0                       # Table walker requests started/completed, data/inst
system.cpu.dtb.stage2_mmu.stage2_tlb.walker.walkRequestOrigin_Completed::Data            0                       # Table walker requests started/completed, data/inst
system.cpu.dtb.stage2_mmu.stage2_tlb.walker.walkRequestOrigin_Completed::Inst            0                       # Table walker requests started/completed, data/inst
system.cpu.dtb.stage2_mmu.stage2_tlb.walker.walkRequestOrigin_Completed::total            0                       # Table walker requests started/completed, data/inst
system.cpu.dtb.stage2_mmu.stage2_tlb.walker.walkRequestOrigin::total            0                       # Table walker requests started/completed, data/inst
system.cpu.dtb.stage2_mmu.stage2_tlb.walker.walks            0                       # Table walker walks requested
system.cpu.dtb.stage2_mmu.stage2_tlb.write_accesses            0                       # DTB write accesses
system.cpu.dtb.stage2_mmu.stage2_tlb.write_hits            0                       # DTB write hits
system.cpu.dtb.stage2_mmu.stage2_tlb.write_misses            0                       # DTB write misses
system.cpu.dtb.walker.walkRequestOrigin_Requested::Data            0                       # Table walker requests started/completed, data/inst
system.cpu.dtb.walker.walkRequestOrigin_Requested::Inst            0                       # Table walker requests started/completed, data/inst
system.cpu.dtb.walker.walkRequestOrigin_Requested::total            0                       # Table walker requests started/completed, data/inst
system.cpu.dtb.walker.walkRequestOrigin_Completed::Data            0                       # Table walker requests started/completed, data/inst
system.cpu.dtb.walker.walkRequestOrigin_Completed::Inst            0                       # Table walker requests started/completed, data/inst
system.cpu.dtb.walker.walkRequestOrigin_Completed::total            0                       # Table walker requests started/completed, data/inst
system.cpu.dtb.walker.walkRequestOrigin::total            0                       # Table walker requests started/completed, data/inst
system.cpu.dtb.walker.walks                         0                       # Table walker walks requested
system.cpu.dtb.write_accesses                       0                       # DTB write accesses
system.cpu.dtb.write_hits                           0                       # DTB write hits
system.cpu.dtb.write_misses                         0                       # DTB write misses
system.cpu.fetch2.amo_instructions                  0                       # Number of memory atomic instructions successfully decoded
system.cpu.fetch2.fp_instructions                   0                       # Number of floating point instructions successfully decoded
system.cpu.fetch2.int_instructions            2169274                       # Number of integer instructions successfully decoded
system.cpu.fetch2.load_instructions           5801047                       # Number of memory load instructions successfully decoded
system.cpu.fetch2.store_instructions          1454394                       # Number of memory store instructions successfully decoded
system.cpu.fetch2.vec_instructions                  0                       # Number of SIMD instructions successfully decoded
system.cpu.idleCycles                        12758822                       # Total number of cycles that the object has spent stopped
system.cpu.ipc                               0.366631                       # IPC: instructions per cycle
system.cpu.itb.accesses                             0                       # DTB accesses
system.cpu.itb.align_faults                         0                       # Number of TLB faults due to alignment restrictions
system.cpu.itb.domain_faults                        0                       # Number of TLB faults due to domain restrictions
system.cpu.itb.flush_entries                        0                       # Number of entries that have been flushed from TLB
system.cpu.itb.flush_tlb                            0                       # Number of times complete TLB was flushed
system.cpu.itb.flush_tlb_asid                       0                       # Number of times TLB was flushed by ASID
system.cpu.itb.flush_tlb_mva                        0                       # Number of times TLB was flushed by MVA
system.cpu.itb.flush_tlb_mva_asid                   0                       # Number of times TLB was flushed by MVA & ASID
system.cpu.itb.hits                                 0                       # DTB hits
system.cpu.itb.inst_accesses                        0                       # ITB inst accesses
system.cpu.itb.inst_hits                            0                       # ITB inst hits
system.cpu.itb.inst_misses                          0                       # ITB inst misses
system.cpu.itb.misses                               0                       # DTB misses
system.cpu.itb.perms_faults                         0                       # Number of TLB faults due to permissions restrictions
system.cpu.itb.prefetch_faults                      0                       # Number of TLB faults due to prefetch
system.cpu.itb.read_accesses                        0                       # DTB read accesses
system.cpu.itb.read_hits                            0                       # DTB read hits
system.cpu.itb.read_misses                          0                       # DTB read misses
system.cpu.itb.stage2_mmu.stage2_tlb.accesses            0                       # DTB accesses
system.cpu.itb.stage2_mmu.stage2_tlb.align_faults            0                       # Number of TLB faults due to alignment restrictions
system.cpu.itb.stage2_mmu.stage2_tlb.domain_faults            0                       # Number of TLB faults due to domain restrictions
system.cpu.itb.stage2_mmu.stage2_tlb.flush_entries            0                       # Number of entries that have been flushed from TLB
system.cpu.itb.stage2_mmu.stage2_tlb.flush_tlb            0                       # Number of times complete TLB was flushed
system.cpu.itb.stage2_mmu.stage2_tlb.flush_tlb_asid            0                       # Number of times TLB was flushed by ASID
system.cpu.itb.stage2_mmu.stage2_tlb.flush_tlb_mva            0                       # Number of times TLB was flushed by MVA
system.cpu.itb.stage2_mmu.stage2_tlb.flush_tlb_mva_asid            0                       # Number of times TLB was flushed by MVA & ASID
system.cpu.itb.stage2_mmu.stage2_tlb.hits            0                       # DTB hits
system.cpu.itb.stage2_mmu.stage2_tlb.inst_accesses            0                       # ITB inst accesses
system.cpu.itb.stage2_mmu.stage2_tlb.inst_hits            0                       # ITB inst hits
system.cpu.itb.stage2_mmu.stage2_tlb.inst_misses            0                       # ITB inst misses
system.cpu.itb.stage2_mmu.stage2_tlb.misses            0                       # DTB misses
system.cpu.itb.stage2_mmu.stage2_tlb.perms_faults            0                       # Number of TLB faults due to permissions restrictions
system.cpu.itb.stage2_mmu.stage2_tlb.prefetch_faults            0                       # Number of TLB faults due to prefetch
system.cpu.itb.stage2_mmu.stage2_tlb.read_accesses            0                       # DTB read accesses
system.cpu.itb.stage2_mmu.stage2_tlb.read_hits            0                       # DTB read hits
system.cpu.itb.stage2_mmu.stage2_tlb.read_misses            0                       # DTB read misses
system.cpu.itb.stage2_mmu.stage2_tlb.walker.walkRequestOrigin_Requested::Data            0                       # Table walker requests started/completed, data/inst
system.cpu.itb.stage2_mmu.stage2_tlb.walker.walkRequestOrigin_Requested::Inst            0                       # Table walker requests started/completed, data/inst
system.cpu.itb.stage2_mmu.stage2_tlb.walker.walkRequestOrigin_Requested::total            0                       # Table walker requests started/completed, data/inst
system.cpu.itb.stage2_mmu.stage2_tlb.walker.walkRequestOrigin_Completed::Data            0                       # Table walker requests started/completed, data/inst
system.cpu.itb.stage2_mmu.stage2_tlb.walker.walkRequestOrigin_Completed::Inst            0                       # Table walker requests started/completed, data/inst
system.cpu.itb.stage2_mmu.stage2_tlb.walker.walkRequestOrigin_Completed::total            0                       # Table walker requests started/completed, data/inst
system.cpu.itb.stage2_mmu.stage2_tlb.walker.walkRequestOrigin::total            0                       # Table walker requests started/completed, data/inst
system.cpu.itb.stage2_mmu.stage2_tlb.walker.walks            0                       # Table walker walks requested
system.cpu.itb.stage2_mmu.stage2_tlb.write_accesses            0                       # DTB write accesses
system.cpu.itb.stage2_mmu.stage2_tlb.write_hits            0                       # DTB write hits
system.cpu.itb.stage2_mmu.stage2_tlb.write_misses            0                       # DTB write misses
system.cpu.itb.walker.walkRequestOrigin_Requested::Data            0                       # Table walker requests started/completed, data/inst
system.cpu.itb.walker.walkRequestOrigin_Requested::Inst            0                       # Table walker requests started/completed, data/inst
system.cpu.itb.walker.walkRequestOrigin_Requested::total            0                       # Table walker requests started/completed, data/inst
system.cpu.itb.walker.walkRequestOrigin_Completed::Data            0                       # Table walker requests started/completed, data/inst
system.cpu.itb.walker.walkRequestOrigin_Completed::Inst            0                       # Table walker requests started/completed, data/inst
system.cpu.itb.walker.walkRequestOrigin_Completed::total            0                       # Table walker requests started/completed, data/inst
system.cpu.itb.walker.walkRequestOrigin::total            0                       # Table walker requests started/completed, data/inst
system.cpu.itb.walker.walks                         0                       # Table walker walks requested
system.cpu.itb.write_accesses                       0                       # DTB write accesses
system.cpu.itb.write_hits                           0                       # DTB write hits
system.cpu.itb.write_misses                         0                       # DTB write misses
system.cpu.numCycles                         27275353                       # number of cpu cycles simulated
system.cpu.numFetchSuspends                         0                       # Number of times Execute suspended instruction fetching
system.cpu.numWorkItemsCompleted                    0                       # number of work items this cpu completed
system.cpu.numWorkItemsStarted                      0                       # number of work items this cpu started
system.cpu.op_class_0::No_OpClass                   0      0.00%      0.00% # Class of committed instruction
system.cpu.op_class_0::IntAlu                 2830128     28.22%     28.22% # Class of committed instruction
system.cpu.op_class_0::IntMult                  20549      0.20%     28.43% # Class of committed instruction
system.cpu.op_class_0::IntDiv                       0      0.00%     28.43% # Class of committed instruction
system.cpu.op_class_0::FloatAdd                     0      0.00%     28.43% # Class of committed instruction
system.cpu.op_class_0::FloatCmp                     0      0.00%     28.43% # Class of committed instruction
system.cpu.op_class_0::FloatCvt                     0      0.00%     28.43% # Class of committed instruction
system.cpu.op_class_0::FloatMult                    0      0.00%     28.43% # Class of committed instruction
system.cpu.op_class_0::FloatMultAcc                 0      0.00%     28.43% # Class of committed instruction
system.cpu.op_class_0::FloatDiv                     0      0.00%     28.43% # Class of committed instruction
system.cpu.op_class_0::FloatMisc                    0      0.00%     28.43% # Class of committed instruction
system.cpu.op_class_0::FloatSqrt                    0      0.00%     28.43% # Class of committed instruction
system.cpu.op_class_0::SimdAdd                      0      0.00%     28.43% # Class of committed instruction
system.cpu.op_class_0::SimdAddAcc                   0      0.00%     28.43% # Class of committed instruction
system.cpu.op_class_0::SimdAlu                      0      0.00%     28.43% # Class of committed instruction
system.cpu.op_class_0::SimdCmp                      0      0.00%     28.43% # Class of committed instruction
system.cpu.op_class_0::SimdCvt                      0      0.00%     28.43% # Class of committed instruction
system.cpu.op_class_0::SimdMisc                     0      0.00%     28.43% # Class of committed instruction
system.cpu.op_class_0::SimdMult                     0      0.00%     28.43% # Class of committed instruction
system.cpu.op_class_0::SimdMultAcc                  0      0.00%     28.43% # Class of committed instruction
system.cpu.op_class_0::SimdShift                    0      0.00%     28.43% # Class of committed instruction
system.cpu.op_class_0::SimdShiftAcc                 0      0.00%     28.43% # Class of committed instruction
system.cpu.op_class_0::SimdDiv                      0      0.00%     28.43% # Class of committed instruction
system.cpu.op_class_0::SimdSqrt                     0      0.00%     28.43% # Class of committed instruction
system.cpu.op_class_0::SimdFloatAdd                 0      0.00%     28.43% # Class of committed instruction
system.cpu.op_class_0::SimdFloatAlu                 0      0.00%     28.43% # Class of committed instruction
system.cpu.op_class_0::SimdFloatCmp                 0      0.00%     28.43% # Class of committed instruction
system.cpu.op_class_0::SimdFloatCvt                 0      0.00%     28.43% # Class of committed instruction
system.cpu.op_class_0::SimdFloatDiv                 0      0.00%     28.43% # Class of committed instruction
system.cpu.op_class_0::SimdFloatMisc               18      0.00%     28.43% # Class of committed instruction
system.cpu.op_class_0::SimdFloatMult                0      0.00%     28.43% # Class of committed instruction
system.cpu.op_class_0::SimdFloatMultAcc             0      0.00%     28.43% # Class of committed instruction
system.cpu.op_class_0::SimdFloatSqrt                0      0.00%     28.43% # Class of committed instruction
system.cpu.op_class_0::SimdReduceAdd                0      0.00%     28.43% # Class of committed instruction
system.cpu.op_class_0::SimdReduceAlu                0      0.00%     28.43% # Class of committed instruction
system.cpu.op_class_0::SimdReduceCmp                0      0.00%     28.43% # Class of committed instruction
system.cpu.op_class_0::SimdFloatReduceAdd            0      0.00%     28.43% # Class of committed instruction
system.cpu.op_class_0::SimdFloatReduceCmp            0      0.00%     28.43% # Class of committed instruction
system.cpu.op_class_0::SimdAes                      0      0.00%     28.43% # Class of committed instruction
system.cpu.op_class_0::SimdAesMix                   0      0.00%     28.43% # Class of committed instruction
system.cpu.op_class_0::SimdSha1Hash                 0      0.00%     28.43% # Class of committed instruction
system.cpu.op_class_0::SimdSha1Hash2                0      0.00%     28.43% # Class of committed instruction
system.cpu.op_class_0::SimdSha256Hash               0      0.00%     28.43% # Class of committed instruction
system.cpu.op_class_0::SimdSha256Hash2              0      0.00%     28.43% # Class of committed instruction
system.cpu.op_class_0::SimdShaSigma2                0      0.00%     28.43% # Class of committed instruction
system.cpu.op_class_0::SimdShaSigma3                0      0.00%     28.43% # Class of committed instruction
system.cpu.op_class_0::SimdPredAlu                  0      0.00%     28.43% # Class of committed instruction
system.cpu.op_class_0::MemRead                5721911     57.06%     85.48% # Class of committed instruction
system.cpu.op_class_0::MemWrite               1455702     14.52%    100.00% # Class of committed instruction
system.cpu.op_class_0::FloatMemRead                 0      0.00%    100.00% # Class of committed instruction
system.cpu.op_class_0::FloatMemWrite                0      0.00%    100.00% # Class of committed instruction
system.cpu.op_class_0::IprAccess                    0      0.00%    100.00% # Class of committed instruction
system.cpu.op_class_0::InstPrefetch                 0      0.00%    100.00% # Class of committed instruction
system.cpu.op_class_0::total                 10028308                       # Class of committed instruction
system.cpu.tickCycles                        14516531                       # Number of cycles that the object actually ticked
system.cpu.workload.numSyscalls                    84                       # Number of system calls
system.membus.snoop_filter.hit_multi_requests            0                       # Number of requests hitting in the snoop filter with multiple (>1) holders of the requested data.
system.membus.snoop_filter.hit_multi_snoops            0                       # Number of snoops hitting in the snoop filter with multiple (>1) holders of the requested data.
system.membus.snoop_filter.hit_single_requests       111640                       # Number of requests hitting in the snoop filter with a single holder of the requested data.
system.membus.snoop_filter.hit_single_snoops            0                       # Number of snoops hitting in the snoop filter with a single holder of the requested data.
system.membus.snoop_filter.tot_requests        231777                       # Total number of requests made to the snoop filter.
system.membus.snoop_filter.tot_snoops               0                       # Total number of snoops made to the snoop filter.
system.tol2bus.snoop_filter.hit_multi_requests          295                       # Number of requests hitting in the snoop filter with multiple (>1) holders of the requested data.
system.tol2bus.snoop_filter.hit_multi_snoops            0                       # Number of snoops hitting in the snoop filter with multiple (>1) holders of the requested data.
system.tol2bus.snoop_filter.hit_single_requests       123890                       # Number of requests hitting in the snoop filter with a single holder of the requested data.
system.tol2bus.snoop_filter.hit_single_snoops          363                       # Number of snoops hitting in the snoop filter with a single holder of the requested data.
system.tol2bus.snoop_filter.tot_requests       248688                       # Total number of requests made to the snoop filter.
system.tol2bus.snoop_filter.tot_snoops            363                       # Total number of snoops made to the snoop filter.
system.membus.pwrStateResidencyTicks::UNDEFINED  13637676500                       # Cumulative time (in ticks) in various power states
system.membus.trans_dist::ReadResp              49904                       # Transaction distribution
system.membus.trans_dist::WritebackDirty        68548                       # Transaction distribution
system.membus.trans_dist::CleanEvict            43084                       # Transaction distribution
system.membus.trans_dist::ReadExReq             70241                       # Transaction distribution
system.membus.trans_dist::ReadExResp            70241                       # Transaction distribution
system.membus.trans_dist::ReadSharedReq         49904                       # Transaction distribution
system.membus.pkt_count_system.l2.mem_side::system.mem_ctrls.port       351922                       # Packet count per connected master and slave (bytes)
system.membus.pkt_count::total                 351922                       # Packet count per connected master and slave (bytes)
system.membus.pkt_size_system.l2.mem_side::system.mem_ctrls.port     12076352                       # Cumulative packet size per connected master and slave (bytes)
system.membus.pkt_size::total                12076352                       # Cumulative packet size per connected master and slave (bytes)
system.membus.snoops                                0                       # Total snoops (count)
system.membus.snoopTraffic                          0                       # Total snoop traffic (bytes)
system.membus.snoop_fanout::samples            120145                       # Request fanout histogram
system.membus.snoop_fanout::mean                    0                       # Request fanout histogram
system.membus.snoop_fanout::stdev                   0                       # Request fanout histogram
system.membus.snoop_fanout::underflows              0      0.00%      0.00% # Request fanout histogram
system.membus.snoop_fanout::0                  120145    100.00%    100.00% # Request fanout histogram
system.membus.snoop_fanout::1                       0      0.00%    100.00% # Request fanout histogram
system.membus.snoop_fanout::overflows               0      0.00%    100.00% # Request fanout histogram
system.membus.snoop_fanout::min_value               0                       # Request fanout histogram
system.membus.snoop_fanout::max_value               0                       # Request fanout histogram
system.membus.snoop_fanout::total              120145                       # Request fanout histogram
system.membus.respLayer1.occupancy          642025250                       # Layer occupancy (ticks)
system.membus.respLayer1.utilization              4.7                       # Layer utilization (%)
system.membus.reqLayer0.occupancy           523916000                       # Layer occupancy (ticks)
system.membus.reqLayer0.utilization               3.8                       # Layer utilization (%)
system.tol2bus.pwrStateResidencyTicks::UNDEFINED  13637676500                       # Cumulative time (in ticks) in various power states
system.tol2bus.trans_dist::ReadResp             52193                       # Transaction distribution
system.tol2bus.trans_dist::WritebackDirty       142072                       # Transaction distribution
system.tol2bus.trans_dist::WritebackClean          208                       # Transaction distribution
system.tol2bus.trans_dist::CleanEvict           93599                       # Transaction distribution
system.tol2bus.trans_dist::ReadExReq            72611                       # Transaction distribution
system.tol2bus.trans_dist::ReadExResp           72611                       # Transaction distribution
system.tol2bus.trans_dist::ReadCleanReq           616                       # Transaction distribution
system.tol2bus.trans_dist::ReadSharedReq        51577                       # Transaction distribution
system.tol2bus.pkt_count_system.cpu.icache.mem_side::system.l2.cpu_side         1440                       # Packet count per connected master and slave (bytes)
system.tol2bus.pkt_count_system.cpu.dcache.mem_side::system.l2.cpu_side       372052                       # Packet count per connected master and slave (bytes)
system.tol2bus.pkt_count::total                373492                       # Packet count per connected master and slave (bytes)
system.tol2bus.pkt_size_system.cpu.icache.mem_side::system.l2.cpu_side        52736                       # Cumulative packet size per connected master and slave (bytes)
system.tol2bus.pkt_size_system.cpu.dcache.mem_side::system.l2.cpu_side     12653568                       # Cumulative packet size per connected master and slave (bytes)
system.tol2bus.pkt_size::total               12706304                       # Cumulative packet size per connected master and slave (bytes)
system.tol2bus.snoops                          111995                       # Total snoops (count)
system.tol2bus.snoopTraffic                   4387072                       # Total snoop traffic (bytes)
system.tol2bus.snoop_fanout::samples           236799                       # Request fanout histogram
system.tol2bus.snoop_fanout::mean            0.002804                       # Request fanout histogram
system.tol2bus.snoop_fanout::stdev           0.052879                       # Request fanout histogram
system.tol2bus.snoop_fanout::underflows             0      0.00%      0.00% # Request fanout histogram
system.tol2bus.snoop_fanout::0                 236135     99.72%     99.72% # Request fanout histogram
system.tol2bus.snoop_fanout::1                    664      0.28%    100.00% # Request fanout histogram
system.tol2bus.snoop_fanout::2                      0      0.00%    100.00% # Request fanout histogram
system.tol2bus.snoop_fanout::overflows              0      0.00%    100.00% # Request fanout histogram
system.tol2bus.snoop_fanout::min_value              0                       # Request fanout histogram
system.tol2bus.snoop_fanout::max_value              1                       # Request fanout histogram
system.tol2bus.snoop_fanout::total             236799                       # Request fanout histogram
system.tol2bus.reqLayer0.occupancy          198076000                       # Layer occupancy (ticks)
system.tol2bus.reqLayer0.utilization              1.5                       # Layer utilization (%)
system.tol2bus.respLayer1.occupancy         186283996                       # Layer occupancy (ticks)
system.tol2bus.respLayer1.utilization             1.4                       # Layer utilization (%)
system.tol2bus.respLayer0.occupancy            924000                       # Layer occupancy (ticks)
system.tol2bus.respLayer0.utilization             0.0                       # Layer utilization (%)
system.voltage_domain.voltage                       1                       # Voltage in Volts
system.clk_domain.clock                          1000                       # Clock period in ticks
system.l2.pwrStateResidencyTicks::UNDEFINED  13637676500                       # Cumulative time (in ticks) in various power states
system.l2.demand_hits::.cpu.inst                   91                       # number of demand (read+write) hits
system.l2.demand_hits::.cpu.data                 4564                       # number of demand (read+write) hits
system.l2.demand_hits::total                     4655                       # number of demand (read+write) hits
system.l2.overall_hits::.cpu.inst                  91                       # number of overall hits
system.l2.overall_hits::.cpu.data                4564                       # number of overall hits
system.l2.overall_hits::total                    4655                       # number of overall hits
system.l2.demand_misses::.cpu.inst                525                       # number of demand (read+write) misses
system.l2.demand_misses::.cpu.data             119624                       # number of demand (read+write) misses
system.l2.demand_misses::total                 120149                       # number of demand (read+write) misses
system.l2.overall_misses::.cpu.inst               525                       # number of overall misses
system.l2.overall_misses::.cpu.data            119624                       # number of overall misses
system.l2.overall_misses::total                120149                       # number of overall misses
system.l2.demand_miss_latency::.cpu.inst     40519500                       # number of demand (read+write) miss cycles
system.l2.demand_miss_latency::.cpu.data   9923061000                       # number of demand (read+write) miss cycles
system.l2.demand_miss_latency::total       9963580500                       # number of demand (read+write) miss cycles
system.l2.overall_miss_latency::.cpu.inst     40519500                       # number of overall miss cycles
system.l2.overall_miss_latency::.cpu.data   9923061000                       # number of overall miss cycles
system.l2.overall_miss_latency::total      9963580500                       # number of overall miss cycles
system.l2.demand_accesses::.cpu.inst              616                       # number of demand (read+write) accesses
system.l2.demand_accesses::.cpu.data           124188                       # number of demand (read+write) accesses
system.l2.demand_accesses::total               124804                       # number of demand (read+write) accesses
system.l2.overall_accesses::.cpu.inst             616                       # number of overall (read+write) accesses
system.l2.overall_accesses::.cpu.data          124188                       # number of overall (read+write) accesses
system.l2.overall_accesses::total              124804                       # number of overall (read+write) accesses
system.l2.demand_miss_rate::.cpu.inst        0.852273                       # miss rate for demand accesses
system.l2.demand_miss_rate::.cpu.data        0.963249                       # miss rate for demand accesses
system.l2.demand_miss_rate::total            0.962702                       # miss rate for demand accesses
system.l2.overall_miss_rate::.cpu.inst       0.852273                       # miss rate for overall accesses
system.l2.overall_miss_rate::.cpu.data       0.963249                       # miss rate for overall accesses
system.l2.overall_miss_rate::total           0.962702                       # miss rate for overall accesses
system.l2.demand_avg_miss_latency::.cpu.inst        77180                       # average overall miss latency
system.l2.demand_avg_miss_latency::.cpu.data 82952.091554                       # average overall miss latency
system.l2.demand_avg_miss_latency::total 82926.869970                       # average overall miss latency
system.l2.overall_avg_miss_latency::.cpu.inst        77180                       # average overall miss latency
system.l2.overall_avg_miss_latency::.cpu.data 82952.091554                       # average overall miss latency
system.l2.overall_avg_miss_latency::total 82926.869970                       # average overall miss latency
system.l2.blocked_cycles::no_mshrs                  0                       # number of cycles access was blocked
system.l2.blocked_cycles::no_targets                0                       # number of cycles access was blocked
system.l2.blocked::no_mshrs                         0                       # number of cycles access was blocked
system.l2.blocked::no_targets                       0                       # number of cycles access was blocked
system.l2.avg_blocked_cycles::no_mshrs            nan                       # average number of cycles each access was blocked
system.l2.avg_blocked_cycles::no_targets          nan                       # average number of cycles each access was blocked
system.l2.writebacks::.writebacks               68548                       # number of writebacks
system.l2.writebacks::total                     68548                       # number of writebacks
system.l2.demand_mshr_hits::.cpu.data               4                       # number of demand (read+write) MSHR hits
system.l2.demand_mshr_hits::total                   4                       # number of demand (read+write) MSHR hits
system.l2.overall_mshr_hits::.cpu.data              4                       # number of overall MSHR hits
system.l2.overall_mshr_hits::total                  4                       # number of overall MSHR hits
system.l2.demand_mshr_misses::.cpu.inst           525                       # number of demand (read+write) MSHR misses
system.l2.demand_mshr_misses::.cpu.data        119620                       # number of demand (read+write) MSHR misses
system.l2.demand_mshr_misses::total            120145                       # number of demand (read+write) MSHR misses
system.l2.overall_mshr_misses::.cpu.inst          525                       # number of overall MSHR misses
system.l2.overall_mshr_misses::.cpu.data       119620                       # number of overall MSHR misses
system.l2.overall_mshr_misses::total           120145                       # number of overall MSHR misses
system.l2.demand_mshr_miss_latency::.cpu.inst     35269500                       # number of demand (read+write) MSHR miss cycles
system.l2.demand_mshr_miss_latency::.cpu.data   8726617000                       # number of demand (read+write) MSHR miss cycles
system.l2.demand_mshr_miss_latency::total   8761886500                       # number of demand (read+write) MSHR miss cycles
system.l2.overall_mshr_miss_latency::.cpu.inst     35269500                       # number of overall MSHR miss cycles
system.l2.overall_mshr_miss_latency::.cpu.data   8726617000                       # number of overall MSHR miss cycles
system.l2.overall_mshr_miss_latency::total   8761886500                       # number of overall MSHR miss cycles
system.l2.demand_mshr_miss_rate::.cpu.inst     0.852273                       # mshr miss rate for demand accesses
system.l2.demand_mshr_miss_rate::.cpu.data     0.963217                       # mshr miss rate for demand accesses
system.l2.demand_mshr_miss_rate::total       0.962669                       # mshr miss rate for demand accesses
system.l2.overall_mshr_miss_rate::.cpu.inst     0.852273                       # mshr miss rate for overall accesses
system.l2.overall_mshr_miss_rate::.cpu.data     0.963217                       # mshr miss rate for overall accesses
system.l2.overall_mshr_miss_rate::total      0.962669                       # mshr miss rate for overall accesses
system.l2.demand_avg_mshr_miss_latency::.cpu.inst        67180                       # average overall mshr miss latency
system.l2.demand_avg_mshr_miss_latency::.cpu.data 72952.825614                       # average overall mshr miss latency
system.l2.demand_avg_mshr_miss_latency::total 72927.599983                       # average overall mshr miss latency
system.l2.overall_avg_mshr_miss_latency::.cpu.inst        67180                       # average overall mshr miss latency
system.l2.overall_avg_mshr_miss_latency::.cpu.data 72952.825614                       # average overall mshr miss latency
system.l2.overall_avg_mshr_miss_latency::total 72927.599983                       # average overall mshr miss latency
system.l2.replacements                         111995                       # number of replacements
system.l2.WritebackDirty_hits::.writebacks        73524                       # number of WritebackDirty hits
system.l2.WritebackDirty_hits::total            73524                       # number of WritebackDirty hits
system.l2.WritebackDirty_accesses::.writebacks        73524                       # number of WritebackDirty accesses(hits+misses)
system.l2.WritebackDirty_accesses::total        73524                       # number of WritebackDirty accesses(hits+misses)
system.l2.WritebackClean_hits::.writebacks          197                       # number of WritebackClean hits
system.l2.WritebackClean_hits::total              197                       # number of WritebackClean hits
system.l2.WritebackClean_accesses::.writebacks          197                       # number of WritebackClean accesses(hits+misses)
system.l2.WritebackClean_accesses::total          197                       # number of WritebackClean accesses(hits+misses)
system.l2.ReadExReq_hits::.cpu.data              2370                       # number of ReadExReq hits
system.l2.ReadExReq_hits::total                  2370                       # number of ReadExReq hits
system.l2.ReadExReq_misses::.cpu.data           70241                       # number of ReadExReq misses
system.l2.ReadExReq_misses::total               70241                       # number of ReadExReq misses
system.l2.ReadExReq_miss_latency::.cpu.data   6075895000                       # number of ReadExReq miss cycles
system.l2.ReadExReq_miss_latency::total    6075895000                       # number of ReadExReq miss cycles
system.l2.ReadExReq_accesses::.cpu.data         72611                       # number of ReadExReq accesses(hits+misses)
system.l2.ReadExReq_accesses::total             72611                       # number of ReadExReq accesses(hits+misses)
system.l2.ReadExReq_miss_rate::.cpu.data     0.967360                       # miss rate for ReadExReq accesses
system.l2.ReadExReq_miss_rate::total         0.967360                       # miss rate for ReadExReq accesses
system.l2.ReadExReq_avg_miss_latency::.cpu.data 86500.690480                       # average ReadExReq miss latency
system.l2.ReadExReq_avg_miss_latency::total 86500.690480                       # average ReadExReq miss latency
system.l2.ReadExReq_mshr_misses::.cpu.data        70241                       # number of ReadExReq MSHR misses
system.l2.ReadExReq_mshr_misses::total          70241                       # number of ReadExReq MSHR misses
system.l2.ReadExReq_mshr_miss_latency::.cpu.data   5373485000                       # number of ReadExReq MSHR miss cycles
system.l2.ReadExReq_mshr_miss_latency::total   5373485000                       # number of ReadExReq MSHR miss cycles
system.l2.ReadExReq_mshr_miss_rate::.cpu.data     0.967360                       # mshr miss rate for ReadExReq accesses
system.l2.ReadExReq_mshr_miss_rate::total     0.967360                       # mshr miss rate for ReadExReq accesses
system.l2.ReadExReq_avg_mshr_miss_latency::.cpu.data 76500.690480                       # average ReadExReq mshr miss latency
system.l2.ReadExReq_avg_mshr_miss_latency::total 76500.690480                       # average ReadExReq mshr miss latency
system.l2.ReadCleanReq_hits::.cpu.inst             91                       # number of ReadCleanReq hits
system.l2.ReadCleanReq_hits::total                 91                       # number of ReadCleanReq hits
system.l2.ReadCleanReq_misses::.cpu.inst          525                       # number of ReadCleanReq misses
system.l2.ReadCleanReq_misses::total              525                       # number of ReadCleanReq misses
system.l2.ReadCleanReq_miss_latency::.cpu.inst     40519500                       # number of ReadCleanReq miss cycles
system.l2.ReadCleanReq_miss_latency::total     40519500                       # number of ReadCleanReq miss cycles
system.l2.ReadCleanReq_accesses::.cpu.inst          616                       # number of ReadCleanReq accesses(hits+misses)
system.l2.ReadCleanReq_accesses::total            616                       # number of ReadCleanReq accesses(hits+misses)
system.l2.ReadCleanReq_miss_rate::.cpu.inst     0.852273                       # miss rate for ReadCleanReq accesses
system.l2.ReadCleanReq_miss_rate::total      0.852273                       # miss rate for ReadCleanReq accesses
system.l2.ReadCleanReq_avg_miss_latency::.cpu.inst        77180                       # average ReadCleanReq miss latency
system.l2.ReadCleanReq_avg_miss_latency::total        77180                       # average ReadCleanReq miss latency
system.l2.ReadCleanReq_mshr_misses::.cpu.inst          525                       # number of ReadCleanReq MSHR misses
system.l2.ReadCleanReq_mshr_misses::total          525                       # number of ReadCleanReq MSHR misses
system.l2.ReadCleanReq_mshr_miss_latency::.cpu.inst     35269500                       # number of ReadCleanReq MSHR miss cycles
system.l2.ReadCleanReq_mshr_miss_latency::total     35269500                       # number of ReadCleanReq MSHR miss cycles
system.l2.ReadCleanReq_mshr_miss_rate::.cpu.inst     0.852273                       # mshr miss rate for ReadCleanReq accesses
system.l2.ReadCleanReq_mshr_miss_rate::total     0.852273                       # mshr miss rate for ReadCleanReq accesses
system.l2.ReadCleanReq_avg_mshr_miss_latency::.cpu.inst        67180                       # average ReadCleanReq mshr miss latency
system.l2.ReadCleanReq_avg_mshr_miss_latency::total        67180                       # average ReadCleanReq mshr miss latency
system.l2.ReadSharedReq_hits::.cpu.data          2194                       # number of ReadSharedReq hits
system.l2.ReadSharedReq_hits::total              2194                       # number of ReadSharedReq hits
system.l2.ReadSharedReq_misses::.cpu.data        49383                       # number of ReadSharedReq misses
system.l2.ReadSharedReq_misses::total           49383                       # number of ReadSharedReq misses
system.l2.ReadSharedReq_miss_latency::.cpu.data   3847166000                       # number of ReadSharedReq miss cycles
system.l2.ReadSharedReq_miss_latency::total   3847166000                       # number of ReadSharedReq miss cycles
system.l2.ReadSharedReq_accesses::.cpu.data        51577                       # number of ReadSharedReq accesses(hits+misses)
system.l2.ReadSharedReq_accesses::total         51577                       # number of ReadSharedReq accesses(hits+misses)
system.l2.ReadSharedReq_miss_rate::.cpu.data     0.957462                       # miss rate for ReadSharedReq accesses
system.l2.ReadSharedReq_miss_rate::total     0.957462                       # miss rate for ReadSharedReq accesses
system.l2.ReadSharedReq_avg_miss_latency::.cpu.data 77904.663548                       # average ReadSharedReq miss latency
system.l2.ReadSharedReq_avg_miss_latency::total 77904.663548                       # average ReadSharedReq miss latency
system.l2.ReadSharedReq_mshr_hits::.cpu.data            4                       # number of ReadSharedReq MSHR hits
system.l2.ReadSharedReq_mshr_hits::total            4                       # number of ReadSharedReq MSHR hits
system.l2.ReadSharedReq_mshr_misses::.cpu.data        49379                       # number of ReadSharedReq MSHR misses
system.l2.ReadSharedReq_mshr_misses::total        49379                       # number of ReadSharedReq MSHR misses
system.l2.ReadSharedReq_mshr_miss_latency::.cpu.data   3353132000                       # number of ReadSharedReq MSHR miss cycles
system.l2.ReadSharedReq_mshr_miss_latency::total   3353132000                       # number of ReadSharedReq MSHR miss cycles
system.l2.ReadSharedReq_mshr_miss_rate::.cpu.data     0.957384                       # mshr miss rate for ReadSharedReq accesses
system.l2.ReadSharedReq_mshr_miss_rate::total     0.957384                       # mshr miss rate for ReadSharedReq accesses
system.l2.ReadSharedReq_avg_mshr_miss_latency::.cpu.data 67906.032929                       # average ReadSharedReq mshr miss latency
system.l2.ReadSharedReq_avg_mshr_miss_latency::total 67906.032929                       # average ReadSharedReq mshr miss latency
system.l2.tags.pwrStateResidencyTicks::UNDEFINED  13637676500                       # Cumulative time (in ticks) in various power states
system.l2.tags.tagsinuse                  7235.908152                       # Cycle average of tags in use
system.l2.tags.total_refs                      248389                       # Total number of references to valid blocks.
system.l2.tags.sampled_refs                    120187                       # Sample count of references to valid blocks.
system.l2.tags.avg_refs                      2.066688                       # Average number of references to valid blocks.
system.l2.tags.warmup_cycle                     77000                       # Cycle when the warmup percentage was hit.
system.l2.tags.occ_blocks::.writebacks      15.882860                       # Average occupied blocks per requestor
system.l2.tags.occ_blocks::.cpu.inst        92.355857                       # Average occupied blocks per requestor
system.l2.tags.occ_blocks::.cpu.data      7127.669435                       # Average occupied blocks per requestor
system.l2.tags.occ_percent::.writebacks      0.001939                       # Average percentage of cache occupancy
system.l2.tags.occ_percent::.cpu.inst        0.011274                       # Average percentage of cache occupancy
system.l2.tags.occ_percent::.cpu.data        0.870077                       # Average percentage of cache occupancy
system.l2.tags.occ_percent::total            0.883290                       # Average percentage of cache occupancy
system.l2.tags.occ_task_id_blocks::1024          8192                       # Occupied blocks per task id
system.l2.tags.age_task_id_blocks_1024::0            2                       # Occupied blocks per task id
system.l2.tags.age_task_id_blocks_1024::1           19                       # Occupied blocks per task id
system.l2.tags.age_task_id_blocks_1024::2          335                       # Occupied blocks per task id
system.l2.tags.age_task_id_blocks_1024::3         7836                       # Occupied blocks per task id
system.l2.tags.occ_task_id_percent::1024            1                       # Percentage of cache occupancy per task id
system.l2.tags.tag_accesses                   1113759                       # Number of tag accesses
system.l2.tags.data_accesses                  1113759                       # Number of data accesses
system.cpu_voltage_domain.voltage                   1                       # Voltage in Volts
system.mem_ctrls.pwrStateResidencyTicks::UNDEFINED  13637676500                       # Cumulative time (in ticks) in various power states
system.mem_ctrls.bytes_read::.cpu.inst          33600                       # Number of bytes read from this memory
system.mem_ctrls.bytes_read::.cpu.data        7655680                       # Number of bytes read from this memory
system.mem_ctrls.bytes_read::total            7689280                       # Number of bytes read from this memory
system.mem_ctrls.bytes_inst_read::.cpu.inst        33600                       # Number of instructions bytes read from this memory
system.mem_ctrls.bytes_inst_read::total         33600                       # Number of instructions bytes read from this memory
system.mem_ctrls.bytes_written::.writebacks      4387072                       # Number of bytes written to this memory
system.mem_ctrls.bytes_written::total         4387072                       # Number of bytes written to this memory
system.mem_ctrls.num_reads::.cpu.inst             525                       # Number of read requests responded to by this memory
system.mem_ctrls.num_reads::.cpu.data          119620                       # Number of read requests responded to by this memory
system.mem_ctrls.num_reads::total              120145                       # Number of read requests responded to by this memory
system.mem_ctrls.num_writes::.writebacks        68548                       # Number of write requests responded to by this memory
system.mem_ctrls.num_writes::total              68548                       # Number of write requests responded to by this memory
system.mem_ctrls.bw_read::.cpu.inst           2463763                       # Total read bandwidth from this memory (bytes/s)
system.mem_ctrls.bw_read::.cpu.data         561362487                       # Total read bandwidth from this memory (bytes/s)
system.mem_ctrls.bw_read::total             563826250                       # Total read bandwidth from this memory (bytes/s)
system.mem_ctrls.bw_inst_read::.cpu.inst      2463763                       # Instruction read bandwidth from this memory (bytes/s)
system.mem_ctrls.bw_inst_read::total          2463763                       # Instruction read bandwidth from this memory (bytes/s)
system.mem_ctrls.bw_write::.writebacks      321687642                       # Write bandwidth from this memory (bytes/s)
system.mem_ctrls.bw_write::total            321687642                       # Write bandwidth from this memory (bytes/s)
system.mem_ctrls.bw_total::.writebacks      321687642                       # Total bandwidth to/from this memory (bytes/s)
system.mem_ctrls.bw_total::.cpu.inst          2463763                       # Total bandwidth to/from this memory (bytes/s)
system.mem_ctrls.bw_total::.cpu.data        561362487                       # Total bandwidth to/from this memory (bytes/s)
system.mem_ctrls.bw_total::total            885513892                       # Total bandwidth to/from this memory (bytes/s)
system.mem_ctrls.avgPriority_.writebacks::samples     68548.00                       # Average QoS priority value for accepted requests
system.mem_ctrls.avgPriority_.cpu.inst::samples       525.00                       # Average QoS priority value for accepted requests
system.mem_ctrls.avgPriority_.cpu.data::samples    119620.00                       # Average QoS priority value for accepted requests
system.mem_ctrls.priorityMinLatency      0.000000018750                       # per QoS priority minimum request to response latency (s)
system.mem_ctrls.priorityMaxLatency      0.002744880500                       # per QoS priority maximum request to response latency (s)
system.mem_ctrls.numReadWriteTurnArounds         4280                       # Number of turnarounds from READ to WRITE
system.mem_ctrls.numWriteReadTurnArounds         4280                       # Number of turnarounds from WRITE to READ
system.mem_ctrls.numStayReadState              302948                       # Number of times bus staying in READ state
system.mem_ctrls.numStayWriteState              64362                       # Number of times bus staying in WRITE state
system.mem_ctrls.readReqs                      120145                       # Number of read requests accepted
system.mem_ctrls.writeReqs                      68548                       # Number of write requests accepted
system.mem_ctrls.readBursts                    120145                       # Number of DRAM read bursts, including those serviced by the write queue
system.mem_ctrls.writeBursts                    68548                       # Number of DRAM write bursts, including those merged in the write queue
system.mem_ctrls.servicedByWrQ                      0                       # Number of DRAM read bursts serviced by the write queue
system.mem_ctrls.mergedWrBursts                     0                       # Number of DRAM write bursts merged with an existing one
system.mem_ctrls.neitherReadNorWriteReqs            0                       # Number of requests that are neither read nor write
system.mem_ctrls.perBankRdBursts::0              7693                       # Per bank write bursts
system.mem_ctrls.perBankRdBursts::1              7578                       # Per bank write bursts
system.mem_ctrls.perBankRdBursts::2              7576                       # Per bank write bursts
system.mem_ctrls.perBankRdBursts::3              7490                       # Per bank write bursts
system.mem_ctrls.perBankRdBursts::4              7551                       # Per bank write bursts
system.mem_ctrls.perBankRdBursts::5              7484                       # Per bank write bursts
system.mem_ctrls.perBankRdBursts::6              7480                       # Per bank write bursts
system.mem_ctrls.perBankRdBursts::7              7648                       # Per bank write bursts
system.mem_ctrls.perBankRdBursts::8              7487                       # Per bank write bursts
system.mem_ctrls.perBankRdBursts::9              7407                       # Per bank write bursts
system.mem_ctrls.perBankRdBursts::10             7443                       # Per bank write bursts
system.mem_ctrls.perBankRdBursts::11             7422                       # Per bank write bursts
system.mem_ctrls.perBankRdBursts::12             7499                       # Per bank write bursts
system.mem_ctrls.perBankRdBursts::13             7470                       # Per bank write bursts
system.mem_ctrls.perBankRdBursts::14             7433                       # Per bank write bursts
system.mem_ctrls.perBankRdBursts::15             7484                       # Per bank write bursts
system.mem_ctrls.perBankWrBursts::0              4347                       # Per bank write bursts
system.mem_ctrls.perBankWrBursts::1              4340                       # Per bank write bursts
system.mem_ctrls.perBankWrBursts::2              4387                       # Per bank write bursts
system.mem_ctrls.perBankWrBursts::3              4348                       # Per bank write bursts
system.mem_ctrls.perBankWrBursts::4              4372                       # Per bank write bursts
system.mem_ctrls.perBankWrBursts::5              4364                       # Per bank write bursts
system.mem_ctrls.perBankWrBursts::6              4280                       # Per bank write bursts
system.mem_ctrls.perBankWrBursts::7              4285                       # Per bank write bursts
system.mem_ctrls.perBankWrBursts::8              4223                       # Per bank write bursts
system.mem_ctrls.perBankWrBursts::9              4220                       # Per bank write bursts
system.mem_ctrls.perBankWrBursts::10             4224                       # Per bank write bursts
system.mem_ctrls.perBankWrBursts::11             4220                       # Per bank write bursts
system.mem_ctrls.perBankWrBursts::12             4222                       # Per bank write bursts
system.mem_ctrls.perBankWrBursts::13             4221                       # Per bank write bursts
system.mem_ctrls.perBankWrBursts::14             4216                       # Per bank write bursts
system.mem_ctrls.perBankWrBursts::15             4264                       # Per bank write bursts
system.mem_ctrls.avgRdQLen                       1.38                       # Average read queue length when enqueuing
system.mem_ctrls.avgWrQLen                      25.67                       # Average write queue length when enqueuing
system.mem_ctrls.totQLat                   1554094500                       # Total ticks spent queuing
system.mem_ctrls.totBusLat                  600725000                       # Total ticks spent in databus transfers
system.mem_ctrls.totMemAccLat              3806813250                       # Total ticks spent from burst creation until serviced by the DRAM
system.mem_ctrls.avgQLat                     12935.16                       # Average queueing delay per DRAM burst
system.mem_ctrls.avgBusLat                    5000.00                       # Average bus latency per DRAM burst
system.mem_ctrls.avgMemAccLat                31685.16                       # Average memory access latency per DRAM burst
system.mem_ctrls.numRdRetry                         0                       # Number of times read queue was full causing retry
system.mem_ctrls.numWrRetry                         0                       # Number of times write queue was full causing retry
system.mem_ctrls.readRowHits                   107496                       # Number of row buffer hits during reads
system.mem_ctrls.writeRowHits                   60740                       # Number of row buffer hits during writes
system.mem_ctrls.readRowHitRate                 89.47                       # Row buffer hit rate for reads
system.mem_ctrls.writeRowHitRate                88.61                       # Row buffer hit rate for writes
system.mem_ctrls.readPktSize::0                     0                       # Read request sizes (log2)
system.mem_ctrls.readPktSize::1                     0                       # Read request sizes (log2)
system.mem_ctrls.readPktSize::2                     0                       # Read request sizes (log2)
system.mem_ctrls.readPktSize::3                     0                       # Read request sizes (log2)
system.mem_ctrls.readPktSize::4                     0                       # Read request sizes (log2)
system.mem_ctrls.readPktSize::5                     0                       # Read request sizes (log2)
system.mem_ctrls.readPktSize::6                120145                       # Read request sizes (log2)
system.mem_ctrls.writePktSize::0                    0                       # Write request sizes (log2)
system.mem_ctrls.writePktSize::1                    0                       # Write request sizes (log2)
system.mem_ctrls.writePktSize::2                    0                       # Write request sizes (log2)
system.mem_ctrls.writePktSize::3                    0                       # Write request sizes (log2)
system.mem_ctrls.writePktSize::4                    0                       # Write request sizes (log2)
system.mem_ctrls.writePktSize::5                    0                       # Write request sizes (log2)
system.mem_ctrls.writePktSize::6                68548                       # Write request sizes (log2)
system.mem_ctrls.rdQLenPdf::0                   67587                       # What read queue length does an incoming req see
system.mem_ctrls.rdQLenPdf::1                   52120                       # What read queue length does an incoming req see
system.mem_ctrls.rdQLenPdf::2                     389                       # What read queue length does an incoming req see
system.mem_ctrls.rdQLenPdf::3                      48                       # What read queue length does an incoming req see
system.mem_ctrls.rdQLenPdf::4                       1                       # What read queue length does an incoming req see
system.mem_ctrls.rdQLenPdf::5                       0                       # What read queue length does an incoming req see
system.mem_ctrls.rdQLenPdf::6                       0                       # What read queue length does an incoming req see
system.mem_ctrls.rdQLenPdf::7                       0                       # What read queue length does an incoming req see
system.mem_ctrls.rdQLenPdf::8                       0                       # What read queue length does an incoming req see
system.mem_ctrls.rdQLenPdf::9                       0                       # What read queue length does an incoming req see
system.mem_ctrls.rdQLenPdf::10                      0                       # What read queue length does an incoming req see
system.mem_ctrls.rdQLenPdf::11                      0                       # What read queue length does an incoming req see
system.mem_ctrls.rdQLenPdf::12                      0                       # What read queue length does an incoming req see
system.mem_ctrls.rdQLenPdf::13                      0                       # What read queue length does an incoming req see
system.mem_ctrls.rdQLenPdf::14                      0                       # What read queue length does an incoming req see
system.mem_ctrls.rdQLenPdf::15                      0                       # What read queue length does an incoming req see
system.mem_ctrls.rdQLenPdf::16                      0                       # What read queue length does an incoming req see
system.mem_ctrls.rdQLenPdf::17                      0                       # What read queue length does an incoming req see
system.mem_ctrls.rdQLenPdf::18                      0                       # What read queue length does an incoming req see
system.mem_ctrls.rdQLenPdf::19                      0                       # What read queue length does an incoming req see
system.mem_ctrls.rdQLenPdf::20                      0                       # What read queue length does an incoming req see
system.mem_ctrls.rdQLenPdf::21                      0                       # What read queue length does an incoming req see
system.mem_ctrls.rdQLenPdf::22                      0                       # What read queue length does an incoming req see
system.mem_ctrls.rdQLenPdf::23                      0                       # What read queue length does an incoming req see
system.mem_ctrls.rdQLenPdf::24                      0                       # What read queue length does an incoming req see
system.mem_ctrls.rdQLenPdf::25                      0                       # What read queue length does an incoming req see
system.mem_ctrls.rdQLenPdf::26                      0                       # What read queue length does an incoming req see
system.mem_ctrls.rdQLenPdf::27                      0                       # What read queue length does an incoming req see
system.mem_ctrls.rdQLenPdf::28                      0                       # What read queue length does an incoming req see
system.mem_ctrls.rdQLenPdf::29                      0                       # What read queue length does an incoming req see
system.mem_ctrls.rdQLenPdf::30                      0                       # What read queue length does an incoming req see
system.mem_ctrls.rdQLenPdf::31                      0                       # What read queue length does an incoming req see
system.mem_ctrls.wrQLenPdf::0                       1                       # What write queue length does an incoming req see
system.mem_ctrls.wrQLenPdf::1                       1                       # What write queue length does an incoming req see
system.mem_ctrls.wrQLenPdf::2                       1                       # What write queue length does an incoming req see
system.mem_ctrls.wrQLenPdf::3                       1                       # What write queue length does an incoming req see
system.mem_ctrls.wrQLenPdf::4                       1                       # What write queue length does an incoming req see
system.mem_ctrls.wrQLenPdf::5                       1                       # What write queue length does an incoming req see
system.mem_ctrls.wrQLenPdf::6                       1                       # What write queue length does an incoming req see
system.mem_ctrls.wrQLenPdf::7                       1                       # What write queue length does an incoming req see
system.mem_ctrls.wrQLenPdf::8                       1                       # What write queue length does an incoming req see
system.mem_ctrls.wrQLenPdf::9                       1                       # What write queue length does an incoming req see
system.mem_ctrls.wrQLenPdf::10                      1                       # What write queue length does an incoming req see
system.mem_ctrls.wrQLenPdf::11                      1                       # What write queue length does an incoming req see
system.mem_ctrls.wrQLenPdf::12                      1                       # What write queue length does an incoming req see
system.mem_ctrls.wrQLenPdf::13                      1                       # What write queue length does an incoming req see
system.mem_ctrls.wrQLenPdf::14                      1                       # What write queue length does an incoming req see
system.mem_ctrls.wrQLenPdf::15                     21                       # What write queue length does an incoming req see
system.mem_ctrls.wrQLenPdf::16                     21                       # What write queue length does an incoming req see
system.mem_ctrls.wrQLenPdf::17                   3262                       # What write queue length does an incoming req see
system.mem_ctrls.wrQLenPdf::18                   4382                       # What write queue length does an incoming req see
system.mem_ctrls.wrQLenPdf::19                   4286                       # What write queue length does an incoming req see
system.mem_ctrls.wrQLenPdf::20                   4383                       # What write queue length does an incoming req see
system.mem_ctrls.wrQLenPdf::21                   4282                       # What write queue length does an incoming req see
system.mem_ctrls.wrQLenPdf::22                   4304                       # What write queue length does an incoming req see
system.mem_ctrls.wrQLenPdf::23                   4298                       # What write queue length does an incoming req see
system.mem_ctrls.wrQLenPdf::24                   4361                       # What write queue length does an incoming req see
system.mem_ctrls.wrQLenPdf::25                   4309                       # What write queue length does an incoming req see
system.mem_ctrls.wrQLenPdf::26                   4322                       # What write queue length does an incoming req see
system.mem_ctrls.wrQLenPdf::27                   4282                       # What write queue length does an incoming req see
system.mem_ctrls.wrQLenPdf::28                   4888                       # What write queue length does an incoming req see
system.mem_ctrls.wrQLenPdf::29                   4290                       # What write queue length does an incoming req see
system.mem_ctrls.wrQLenPdf::30                   4281                       # What write queue length does an incoming req see
system.mem_ctrls.wrQLenPdf::31                   4280                       # What write queue length does an incoming req see
system.mem_ctrls.wrQLenPdf::32                   4280                       # What write queue length does an incoming req see
system.mem_ctrls.wrQLenPdf::33                      1                       # What write queue length does an incoming req see
system.mem_ctrls.wrQLenPdf::34                      0                       # What write queue length does an incoming req see
system.mem_ctrls.wrQLenPdf::35                      0                       # What write queue length does an incoming req see
system.mem_ctrls.wrQLenPdf::36                      0                       # What write queue length does an incoming req see
system.mem_ctrls.wrQLenPdf::37                      0                       # What write queue length does an incoming req see
system.mem_ctrls.wrQLenPdf::38                      0                       # What write queue length does an incoming req see
system.mem_ctrls.wrQLenPdf::39                      0                       # What write queue length does an incoming req see
system.mem_ctrls.wrQLenPdf::40                      0                       # What write queue length does an incoming req see
system.mem_ctrls.wrQLenPdf::41                      0                       # What write queue length does an incoming req see
system.mem_ctrls.wrQLenPdf::42                      0                       # What write queue length does an incoming req see
system.mem_ctrls.wrQLenPdf::43                      0                       # What write queue length does an incoming req see
system.mem_ctrls.wrQLenPdf::44                      0                       # What write queue length does an incoming req see
system.mem_ctrls.wrQLenPdf::45                      0                       # What write queue length does an incoming req see
system.mem_ctrls.wrQLenPdf::46                      0                       # What write queue length does an incoming req see
system.mem_ctrls.wrQLenPdf::47                      0                       # What write queue length does an incoming req see
system.mem_ctrls.wrQLenPdf::48                      0                       # What write queue length does an incoming req see
system.mem_ctrls.wrQLenPdf::49                      0                       # What write queue length does an incoming req see
system.mem_ctrls.wrQLenPdf::50                      0                       # What write queue length does an incoming req see
system.mem_ctrls.wrQLenPdf::51                      0                       # What write queue length does an incoming req see
system.mem_ctrls.wrQLenPdf::52                      0                       # What write queue length does an incoming req see
system.mem_ctrls.wrQLenPdf::53                      0                       # What write queue length does an incoming req see
system.mem_ctrls.wrQLenPdf::54                      0                       # What write queue length does an incoming req see
system.mem_ctrls.wrQLenPdf::55                      0                       # What write queue length does an incoming req see
system.mem_ctrls.wrQLenPdf::56                      0                       # What write queue length does an incoming req see
system.mem_ctrls.wrQLenPdf::57                      0                       # What write queue length does an incoming req see
system.mem_ctrls.wrQLenPdf::58                      0                       # What write queue length does an incoming req see
system.mem_ctrls.wrQLenPdf::59                      0                       # What write queue length does an incoming req see
system.mem_ctrls.wrQLenPdf::60                      0                       # What write queue length does an incoming req see
system.mem_ctrls.wrQLenPdf::61                      0                       # What write queue length does an incoming req see
system.mem_ctrls.wrQLenPdf::62                      0                       # What write queue length does an incoming req see
system.mem_ctrls.wrQLenPdf::63                      0                       # What write queue length does an incoming req see
system.mem_ctrls.bytesPerActivate::samples        20442                       # Bytes accessed per row activation
system.mem_ctrls.bytesPerActivate::mean    590.714803                       # Bytes accessed per row activation
system.mem_ctrls.bytesPerActivate::gmean   474.952579                       # Bytes accessed per row activation
system.mem_ctrls.bytesPerActivate::stdev   315.310010                       # Bytes accessed per row activation
system.mem_ctrls.bytesPerActivate::0-127         1315      6.43%      6.43% # Bytes accessed per row activation
system.mem_ctrls.bytesPerActivate::128-255         2048     10.02%     16.45% # Bytes accessed per row activation
system.mem_ctrls.bytesPerActivate::256-383          852      4.17%     20.62% # Bytes accessed per row activation
system.mem_ctrls.bytesPerActivate::384-511          841      4.11%     24.73% # Bytes accessed per row activation
system.mem_ctrls.bytesPerActivate::512-639         8558     41.86%     66.60% # Bytes accessed per row activation
system.mem_ctrls.bytesPerActivate::640-767          486      2.38%     68.98% # Bytes accessed per row activation
system.mem_ctrls.bytesPerActivate::768-895          426      2.08%     71.06% # Bytes accessed per row activation
system.mem_ctrls.bytesPerActivate::896-1023          309      1.51%     72.57% # Bytes accessed per row activation
system.mem_ctrls.bytesPerActivate::1024-1151         5607     27.43%    100.00% # Bytes accessed per row activation
system.mem_ctrls.bytesPerActivate::total        20442                       # Bytes accessed per row activation
system.mem_ctrls.rdPerTurnAround::samples         4280                       # Reads before turning the bus around for writes
system.mem_ctrls.rdPerTurnAround::mean      28.053972                       # Reads before turning the bus around for writes
system.mem_ctrls.rdPerTurnAround::gmean     24.380659                       # Reads before turning the bus around for writes
system.mem_ctrls.rdPerTurnAround::stdev     28.827020                       # Reads before turning the bus around for writes
system.mem_ctrls.rdPerTurnAround::0-31           1979     46.24%     46.24% # Reads before turning the bus around for writes
system.mem_ctrls.rdPerTurnAround::32-63          2210     51.64%     97.87% # Reads before turning the bus around for writes
system.mem_ctrls.rdPerTurnAround::64-95            41      0.96%     98.83% # Reads before turning the bus around for writes
system.mem_ctrls.rdPerTurnAround::96-127            7      0.16%     99.00% # Reads before turning the bus around for writes
system.mem_ctrls.rdPerTurnAround::128-159            3      0.07%     99.07% # Reads before turning the bus around for writes
system.mem_ctrls.rdPerTurnAround::160-191            6      0.14%     99.21% # Reads before turning the bus around for writes
system.mem_ctrls.rdPerTurnAround::192-223            3      0.07%     99.28% # Reads before turning the bus around for writes
system.mem_ctrls.rdPerTurnAround::224-255            2      0.05%     99.32% # Reads before turning the bus around for writes
system.mem_ctrls.rdPerTurnAround::256-287           23      0.54%     99.86% # Reads before turning the bus around for writes
system.mem_ctrls.rdPerTurnAround::288-319            2      0.05%     99.91% # Reads before turning the bus around for writes
[...]
system.cpu.icache.ReadReq_avg_miss_latency::total 69857.954545                       # average ReadReq miss latency
system.cpu.icache.ReadReq_mshr_misses::.cpu.inst          616                       # number of ReadReq MSHR misses
system.cpu.icache.ReadReq_mshr_misses::total          616                       # number of ReadReq MSHR misses
system.cpu.icache.ReadReq_mshr_miss_latency::.cpu.inst     42416500                       # number of ReadReq MSHR miss cycles
system.cpu.icache.ReadReq_mshr_miss_latency::total     42416500                       # number of ReadReq MSHR miss cycles
system.cpu.icache.ReadReq_mshr_miss_rate::.cpu.inst     0.000530                       # mshr miss rate for ReadReq accesses
system.cpu.icache.ReadReq_mshr_miss_rate::total     0.000530                       # mshr miss rate for ReadReq accesses
system.cpu.icache.ReadReq_avg_mshr_miss_latency::.cpu.inst 68857.954545                       # average ReadReq mshr miss latency
system.cpu.icache.ReadReq_avg_mshr_miss_latency::total 68857.954545                       # average ReadReq mshr miss latency
system.cpu.icache.tags.pwrStateResidencyTicks::UNDEFINED  13637676500                       # Cumulative time (in ticks) in various power states
system.cpu.icache.tags.tagsinuse           368.980503                       # Cycle average of tags in use
system.cpu.icache.tags.total_refs             1162754                       # Total number of references to valid blocks.
system.cpu.icache.tags.sampled_refs               616                       # Sample count of references to valid blocks.
system.cpu.icache.tags.avg_refs           1887.587662                       # Average number of references to valid blocks.
system.cpu.icache.tags.warmup_cycle             87500                       # Cycle when the warmup percentage was hit.
system.cpu.icache.tags.occ_blocks::.cpu.inst   368.980503                       # Average occupied blocks per requestor
system.cpu.icache.tags.occ_percent::.cpu.inst     0.360333                       # Average percentage of cache occupancy
system.cpu.icache.tags.occ_percent::total     0.360333                       # Average percentage of cache occupancy
system.cpu.icache.tags.occ_task_id_blocks::1024          408                       # Occupied blocks per task id
system.cpu.icache.tags.age_task_id_blocks_1024::3          104                       # Occupied blocks per task id
system.cpu.icache.tags.age_task_id_blocks_1024::4          304                       # Occupied blocks per task id
system.cpu.icache.tags.occ_task_id_percent::1024     0.398438                       # Percentage of cache occupancy per task id
system.cpu.icache.tags.tag_accesses           1163370                       # Number of tag accesses
system.cpu.icache.tags.data_accesses          1163370                       # Number of data accesses
system.cpu.dtb.walker.pwrStateResidencyTicks::UNDEFINED  13637676500                       # Cumulative time (in ticks) in various power states
system.cpu.dtb.stage2_mmu.stage2_tlb.walker.pwrStateResidencyTicks::UNDEFINED  13637676500                       # Cumulative time (in ticks) in various power states
system.cpu.dcache.pwrStateResidencyTicks::UNDEFINED  13637676500                       # Cumulative time (in ticks) in various power states
system.cpu.dcache.demand_hits::.cpu.data      6981350                       # number of demand (read+write) hits
system.cpu.dcache.demand_hits::total          6981350                       # number of demand (read+write) hits
system.cpu.dcache.overall_hits::.cpu.data      6981433                       # number of overall hits
system.cpu.dcache.overall_hits::total         6981433                       # number of overall hits
system.cpu.dcache.demand_misses::.cpu.data       160798                       # number of demand (read+write) misses
system.cpu.dcache.demand_misses::total         160798                       # number of demand (read+write) misses
system.cpu.dcache.overall_misses::.cpu.data       162325                       # number of overall misses
system.cpu.dcache.overall_misses::total        162325                       # number of overall misses
system.cpu.dcache.demand_miss_latency::.cpu.data  10528057999                       # number of demand (read+write) miss cycles
system.cpu.dcache.demand_miss_latency::total  10528057999                       # number of demand (read+write) miss cycles
system.cpu.dcache.overall_miss_latency::.cpu.data  10528057999                       # number of overall miss cycles
system.cpu.dcache.overall_miss_latency::total  10528057999                       # number of overall miss cycles
system.cpu.dcache.demand_accesses::.cpu.data      7142148                       # number of demand (read+write) accesses
system.cpu.dcache.demand_accesses::total      7142148                       # number of demand (read+write) accesses
system.cpu.dcache.overall_accesses::.cpu.data      7143758                       # number of overall (read+write) accesses
system.cpu.dcache.overall_accesses::total      7143758                       # number of overall (read+write) accesses
system.cpu.dcache.demand_miss_rate::.cpu.data     0.022514                       # miss rate for demand accesses
system.cpu.dcache.demand_miss_rate::total     0.022514                       # miss rate for demand accesses
system.cpu.dcache.overall_miss_rate::.cpu.data     0.022723                       # miss rate for overall accesses
system.cpu.dcache.overall_miss_rate::total     0.022723                       # miss rate for overall accesses
system.cpu.dcache.demand_avg_miss_latency::.cpu.data 65473.811857                       # average overall miss latency
system.cpu.dcache.demand_avg_miss_latency::total 65473.811857                       # average overall miss latency
system.cpu.dcache.overall_avg_miss_latency::.cpu.data 64857.896190                       # average overall miss latency
system.cpu.dcache.overall_avg_miss_latency::total 64857.896190                       # average overall miss latency
system.cpu.dcache.blocked_cycles::no_mshrs        35419                       # number of cycles access was blocked
system.cpu.dcache.blocked_cycles::no_targets            0                       # number of cycles access was blocked
system.cpu.dcache.blocked::no_mshrs               786                       # number of cycles access was blocked
system.cpu.dcache.blocked::no_targets               0                       # number of cycles access was blocked
system.cpu.dcache.avg_blocked_cycles::no_mshrs    45.062341                       # average number of cycles each access was blocked
system.cpu.dcache.avg_blocked_cycles::no_targets          nan                       # average number of cycles each access was blocked
system.cpu.dcache.writebacks::.writebacks        73524                       # number of writebacks
system.cpu.dcache.writebacks::total             73524                       # number of writebacks
system.cpu.dcache.demand_mshr_hits::.cpu.data        38131                       # number of demand (read+write) MSHR hits
system.cpu.dcache.demand_mshr_hits::total        38131                       # number of demand (read+write) MSHR hits
system.cpu.dcache.overall_mshr_hits::.cpu.data        38131                       # number of overall MSHR hits
system.cpu.dcache.overall_mshr_hits::total        38131                       # number of overall MSHR hits
system.cpu.dcache.demand_mshr_misses::.cpu.data       122667                       # number of demand (read+write) MSHR misses
system.cpu.dcache.demand_mshr_misses::total       122667                       # number of demand (read+write) MSHR misses
system.cpu.dcache.overall_mshr_misses::.cpu.data       124188                       # number of overall MSHR misses
system.cpu.dcache.overall_mshr_misses::total       124188                       # number of overall MSHR misses
system.cpu.dcache.demand_mshr_miss_latency::.cpu.data  10052113000                       # number of demand (read+write) MSHR miss cycles
system.cpu.dcache.demand_mshr_miss_latency::total  10052113000                       # number of demand (read+write) MSHR miss cycles
system.cpu.dcache.overall_mshr_miss_latency::.cpu.data  10168291997                       # number of overall MSHR miss cycles
system.cpu.dcache.overall_mshr_miss_latency::total  10168291997                       # number of overall MSHR miss cycles
system.cpu.dcache.demand_mshr_miss_rate::.cpu.data     0.017175                       # mshr miss rate for demand accesses
system.cpu.dcache.demand_mshr_miss_rate::total     0.017175                       # mshr miss rate for demand accesses
system.cpu.dcache.overall_mshr_miss_rate::.cpu.data     0.017384                       # mshr miss rate for overall accesses
system.cpu.dcache.overall_mshr_miss_rate::total     0.017384                       # mshr miss rate for overall accesses
system.cpu.dcache.demand_avg_mshr_miss_latency::.cpu.data 81946.350689                       # average overall mshr miss latency
system.cpu.dcache.demand_avg_mshr_miss_latency::total 81946.350689                       # average overall mshr miss latency
system.cpu.dcache.overall_avg_mshr_miss_latency::.cpu.data 81878.216873                       # average overall mshr miss latency
system.cpu.dcache.overall_avg_mshr_miss_latency::total 81878.216873                       # average overall mshr miss latency
system.cpu.dcache.replacements                 123676                       # number of replacements
system.cpu.dcache.ReadReq_hits::.cpu.data      5636353                       # number of ReadReq hits
system.cpu.dcache.ReadReq_hits::total         5636353                       # number of ReadReq hits
system.cpu.dcache.ReadReq_misses::.cpu.data        50288                       # number of ReadReq misses
system.cpu.dcache.ReadReq_misses::total         50288                       # number of ReadReq misses
system.cpu.dcache.ReadReq_miss_latency::.cpu.data   3896206000                       # number of ReadReq miss cycles
system.cpu.dcache.ReadReq_miss_latency::total   3896206000                       # number of ReadReq miss cycles
system.cpu.dcache.ReadReq_accesses::.cpu.data      5686641                       # number of ReadReq accesses(hits+misses)
system.cpu.dcache.ReadReq_accesses::total      5686641                       # number of ReadReq accesses(hits+misses)
system.cpu.dcache.ReadReq_miss_rate::.cpu.data     0.008843                       # miss rate for ReadReq accesses
system.cpu.dcache.ReadReq_miss_rate::total     0.008843                       # miss rate for ReadReq accesses
system.cpu.dcache.ReadReq_avg_miss_latency::.cpu.data 77477.847598                       # average ReadReq miss latency
system.cpu.dcache.ReadReq_avg_miss_latency::total 77477.847598                       # average ReadReq miss latency
system.cpu.dcache.ReadReq_mshr_hits::.cpu.data          232                       # number of ReadReq MSHR hits
system.cpu.dcache.ReadReq_mshr_hits::total          232                       # number of ReadReq MSHR hits
system.cpu.dcache.ReadReq_mshr_misses::.cpu.data        50056                       # number of ReadReq MSHR misses
system.cpu.dcache.ReadReq_mshr_misses::total        50056                       # number of ReadReq MSHR misses
system.cpu.dcache.ReadReq_mshr_miss_latency::.cpu.data   3838862500                       # number of ReadReq MSHR miss cycles
system.cpu.dcache.ReadReq_mshr_miss_latency::total   3838862500                       # number of ReadReq MSHR miss cycles
system.cpu.dcache.ReadReq_mshr_miss_rate::.cpu.data     0.008802                       # mshr miss rate for ReadReq accesses
system.cpu.dcache.ReadReq_mshr_miss_rate::total     0.008802                       # mshr miss rate for ReadReq accesses
system.cpu.dcache.ReadReq_avg_mshr_miss_latency::.cpu.data 76691.355682                       # average ReadReq mshr miss latency
system.cpu.dcache.ReadReq_avg_mshr_miss_latency::total 76691.355682                       # average ReadReq mshr miss latency
system.cpu.dcache.WriteReq_hits::.cpu.data      1344997                       # number of WriteReq hits
system.cpu.dcache.WriteReq_hits::total        1344997                       # number of WriteReq hits
system.cpu.dcache.WriteReq_misses::.cpu.data       110510                       # number of WriteReq misses
system.cpu.dcache.WriteReq_misses::total       110510                       # number of WriteReq misses
system.cpu.dcache.WriteReq_miss_latency::.cpu.data   6631851999                       # number of WriteReq miss cycles
system.cpu.dcache.WriteReq_miss_latency::total   6631851999                       # number of WriteReq miss cycles
system.cpu.dcache.WriteReq_accesses::.cpu.data      1455507                       # number of WriteReq accesses(hits+misses)
system.cpu.dcache.WriteReq_accesses::total      1455507                       # number of WriteReq accesses(hits+misses)
system.cpu.dcache.WriteReq_miss_rate::.cpu.data     0.075925                       # miss rate for WriteReq accesses
system.cpu.dcache.WriteReq_miss_rate::total     0.075925                       # miss rate for WriteReq accesses
system.cpu.dcache.WriteReq_avg_miss_latency::.cpu.data 60011.329282                       # average WriteReq miss latency
system.cpu.dcache.WriteReq_avg_miss_latency::total 60011.329282                       # average WriteReq miss latency
system.cpu.dcache.WriteReq_mshr_hits::.cpu.data        37899                       # number of WriteReq MSHR hits
system.cpu.dcache.WriteReq_mshr_hits::total        37899                       # number of WriteReq MSHR hits
system.cpu.dcache.WriteReq_mshr_misses::.cpu.data        72611                       # number of WriteReq MSHR misses
system.cpu.dcache.WriteReq_mshr_misses::total        72611                       # number of WriteReq MSHR misses
system.cpu.dcache.WriteReq_mshr_miss_latency::.cpu.data   6213250500                       # number of WriteReq MSHR miss cycles
system.cpu.dcache.WriteReq_mshr_miss_latency::total   6213250500                       # number of WriteReq MSHR miss cycles
system.cpu.dcache.WriteReq_mshr_miss_rate::.cpu.data     0.049887                       # mshr miss rate for WriteReq accesses
system.cpu.dcache.WriteReq_mshr_miss_rate::total     0.049887                       # mshr miss rate for WriteReq accesses
system.cpu.dcache.WriteReq_avg_mshr_miss_latency::.cpu.data 85568.997810                       # average WriteReq mshr miss latency
system.cpu.dcache.WriteReq_avg_mshr_miss_latency::total 85568.997810                       # average WriteReq mshr miss latency
system.cpu.dcache.SoftPFReq_hits::.cpu.data           83                       # number of SoftPFReq hits
system.cpu.dcache.SoftPFReq_hits::total            83                       # number of SoftPFReq hits
system.cpu.dcache.SoftPFReq_misses::.cpu.data         1527                       # number of SoftPFReq misses
system.cpu.dcache.SoftPFReq_misses::total         1527                       # number of SoftPFReq misses
system.cpu.dcache.SoftPFReq_accesses::.cpu.data         1610                       # number of SoftPFReq accesses(hits+misses)
system.cpu.dcache.SoftPFReq_accesses::total         1610                       # number of SoftPFReq accesses(hits+misses)
system.cpu.dcache.SoftPFReq_miss_rate::.cpu.data     0.948447                       # miss rate for SoftPFReq accesses
system.cpu.dcache.SoftPFReq_miss_rate::total     0.948447                       # miss rate for SoftPFReq accesses
system.cpu.dcache.SoftPFReq_mshr_misses::.cpu.data         1521                       # number of SoftPFReq MSHR misses
system.cpu.dcache.SoftPFReq_mshr_misses::total         1521                       # number of SoftPFReq MSHR misses
system.cpu.dcache.SoftPFReq_mshr_miss_latency::.cpu.data    116178997                       # number of SoftPFReq MSHR miss cycles
system.cpu.dcache.SoftPFReq_mshr_miss_latency::total    116178997                       # number of SoftPFReq MSHR miss cycles
system.cpu.dcache.SoftPFReq_mshr_miss_rate::.cpu.data     0.944720                       # mshr miss rate for SoftPFReq accesses
system.cpu.dcache.SoftPFReq_mshr_miss_rate::total     0.944720                       # mshr miss rate for SoftPFReq accesses
system.cpu.dcache.SoftPFReq_avg_mshr_miss_latency::.cpu.data 76383.298488                       # average SoftPFReq mshr miss latency
system.cpu.dcache.SoftPFReq_avg_mshr_miss_latency::total 76383.298488                       # average SoftPFReq mshr miss latency
system.cpu.dcache.LoadLockedReq_hits::.cpu.data           38                       # number of LoadLockedReq hits
system.cpu.dcache.LoadLockedReq_hits::total           38                       # number of LoadLockedReq hits
system.cpu.dcache.LoadLockedReq_accesses::.cpu.data           38                       # number of LoadLockedReq accesses(hits+misses)
system.cpu.dcache.LoadLockedReq_accesses::total           38                       # number of LoadLockedReq accesses(hits+misses)
system.cpu.dcache.StoreCondReq_hits::.cpu.data           38                       # number of StoreCondReq hits
system.cpu.dcache.StoreCondReq_hits::total           38                       # number of StoreCondReq hits
system.cpu.dcache.StoreCondReq_accesses::.cpu.data           38                       # number of StoreCondReq accesses(hits+misses)
system.cpu.dcache.StoreCondReq_accesses::total           38                       # number of StoreCondReq accesses(hits+misses)
system.cpu.dcache.tags.pwrStateResidencyTicks::UNDEFINED  13637676500                       # Cumulative time (in ticks) in various power states
system.cpu.dcache.tags.tagsinuse           471.350359                       # Cycle average of tags in use
system.cpu.dcache.tags.total_refs             7105697                       # Total number of references to valid blocks.
system.cpu.dcache.tags.sampled_refs            124188                       # Sample count of references to valid blocks.
system.cpu.dcache.tags.avg_refs             57.217259                       # Average number of references to valid blocks.
system.cpu.dcache.tags.warmup_cycle            176500                       # Cycle when the warmup percentage was hit.
system.cpu.dcache.tags.occ_blocks::.cpu.data   471.350359                       # Average occupied blocks per requestor
system.cpu.dcache.tags.occ_percent::.cpu.data     0.920606                       # Average percentage of cache occupancy
system.cpu.dcache.tags.occ_percent::total     0.920606                       # Average percentage of cache occupancy
system.cpu.dcache.tags.occ_task_id_blocks::1024          512                       # Occupied blocks per task id
system.cpu.dcache.tags.age_task_id_blocks_1024::0            3                       # Occupied blocks per task id
system.cpu.dcache.tags.age_task_id_blocks_1024::1           19                       # Occupied blocks per task id
system.cpu.dcache.tags.age_task_id_blocks_1024::2          348                       # Occupied blocks per task id
system.cpu.dcache.tags.age_task_id_blocks_1024::3          142                       # Occupied blocks per task id
system.cpu.dcache.tags.occ_task_id_percent::1024            1                       # Percentage of cache occupancy per task id
system.cpu.dcache.tags.tag_accesses           7268022                       # Number of tag accesses
system.cpu.dcache.tags.data_accesses          7268022                       # Number of data accesses
system.cpu.itb.walker.pwrStateResidencyTicks::UNDEFINED  13637676500                       # Cumulative time (in ticks) in various power states
system.cpu.itb.stage2_mmu.stage2_tlb.walker.pwrStateResidencyTicks::UNDEFINED  13637676500                       # Cumulative time (in ticks) in various power states

---------- End Simulation Statistics   ----------
