
---------- Begin Simulation Statistics ----------
final_tick                                  269915500                       # Number of ticks from beginning of simulation (restored from checkpoints and never reset)
host_inst_rate                                 155146                       # Simulator instruction rate (inst/s)
host_mem_usage                                 701916                       # Number of bytes of host memory used
host_op_rate                                   157012                       # Simulator op (including micro ops) rate (op/s)
host_seconds                                     0.64                       # Real time elapsed on the host
host_tick_rate                              418668424                       # Simulator tick rate (ticks/s)
sim_freq                                 1000000000000                       # Frequency of simulated ticks
sim_insts                                      100001                       # Number of instructions simulated
sim_ops                                        101221                       # Number of ops (including micro ops) simulated
sim_seconds                                  0.000270                       # Number of seconds simulated
sim_ticks                                   269915500                       # Number of ticks simulated
system.cpu.branchPred.BTBCorrect                    0                       # Number of correct BTB predictions (this stat may not work properly.
system.cpu.branchPred.BTBHitPct             76.291578                       # BTB Hit Percentage
system.cpu.branchPred.BTBHits                    5390                       # Number of BTB hits
system.cpu.branchPred.BTBLookups                 7065                       # Number of BTB lookups
system.cpu.branchPred.RASInCorrect                  4                       # Number of incorrect RAS predictions.
system.cpu.branchPred.condIncorrect               494                       # Number of conditional branches incorrect
system.cpu.branchPred.condPredicted              6635                       # Number of conditional branches predicted
system.cpu.branchPred.indirectHits                 20                       # Number of indirect target hits.
system.cpu.branchPred.indirectLookups             129                       # Number of indirect predictor lookups.
system.cpu.branchPred.indirectMisses              109                       # Number of indirect misses.
system.cpu.branchPred.lookups                    7632                       # Number of BP lookups
system.cpu.branchPred.usedRAS                     249                       # Number of times the RAS was used to get a target.
system.cpu.branchPredindirectMispredicted           55                       # Number of mispredicted indirect branches.
system.cpu.committedInsts                      100001                       # Number of instructions committed
system.cpu.committedOps                        101221                       # Number of ops (including micro ops) committed
system.cpu.cpi                               5.398256                       # CPI: cycles per instruction
system.cpu.discardedOps                          1612                       # Number of ops (including micro ops) which were discarded before commit
system.cpu.dtb.accesses                             0                       # DTB accesses
system.cpu.dtb.align_faults                         0                       # Number of TLB faults due to alignment restrictions
system.cpu.dtb.domain_faults                        0                       # Number of TLB faults due to domain restrictions
system.cpu.dtb.flush_entries                        0                       # Number of entries that have been flushed from TLB
system.cpu.dtb.flush_tlb                            0                       # Number of times complete TLB was flushed
system.cpu.dtb.flush_tlb_asid                       0                       # Number of times TLB was flushed by ASID
system.cpu.dtb.flush_tlb_mva                        0                       # Number of times TLB was flushed by MVA
system.cpu.dtb.flush_tlb_mva_asid                   0                       # Number of times TLB was flushed by MVA & ASID
system.cpu.dtb.hits                                 0                       # DTB hits
system.cpu.dtb.inst_accesses                        0                       # ITB inst accesses
system.cpu.dtb.inst_hits                            0                       # ITB inst hits
system.cpu.dtb.inst_misses                          0                       # ITB inst misses
system.cpu.dtb.misses                               0                       # DTB misses
system.cpu.dtb.perms_faults                         0                       # Number of TLB faults due to permissions restrictions
system.cpu.dtb.prefetch_faults                      0                       # Number of TLB faults due to prefetch
system.cpu.dtb.read_accesses                        0                       # DTB read accesses
system.cpu.dtb.read_hits                            0                       # DTB read hits
system.cpu.dtb.read_misses                          0                       # DTB read misses
system.cpu.dtb.stage2_mmu.stage2_tlb.accesses            0                       # DTB accesses
system.cpu.dtb.stage2_mmu.stage2_tlb.align_faults            0                       # Number of TLB faults due to alignment restrictions
system.cpu.dtb.stage2_mmu.stage2_tlb.domain_faults            0                       # Number of TLB faults due to domain restrictions
system.cpu.dtb.stage2_mmu.stage2_tlb.flush_entries            0                       # Number of entries that have been flushed from TLB
system.cpu.dtb.stage2_mmu.stage2_tlb.flush_tlb            0                       # Number of times complete TLB was flushed
system.cpu.dtb.stage2_mmu.stage2_tlb.flush_tlb_asid            0                       # Number of times TLB was flushed by ASID
system.cpu.dtb.stage2_mmu.stage2_tlb.flush_tlb_mva            0                       # Number of times TLB was flushed by MVA
system.cpu.dtb.stage2_mmu.stage2_tlb.flush_tlb_mva_asid            0                       # Number of times TLB was flushed by MVA & ASID
system.cpu.dtb.stage2_mmu.stage2_tlb.hits            0                       # DTB hits
system.cpu.dtb.stage2_mmu.stage2_tlb.inst_accesses            0                       # ITB inst accesses
system.cpu.dtb.stage2_mmu.stage2_tlb.inst_hits            0                       # ITB inst hits
system.cpu.dtb.stage2_mmu.stage2_tlb.inst_misses            0                       # ITB inst misses
system.cpu.dtb.stage2_mmu.stage2_tlb.misses            0                       # DTB misses
system.cpu.dtb.stage2_mmu.stage2_tlb.perms_faults            0                       # Number of TLB faults due to permissions restrictions
system.cpu.dtb.stage2_mmu.stage2_tlb.prefetch_faults            0                       # Number of TLB faults due to prefetch
system.cpu.dtb.stage2_mmu.stage2_tlb.read_accesses            0                       # DTB read accesses
system.cpu.dtb.stage2_mmu.stage2_tlb.read_hits            0                       # DTB read hits
system.cpu.dtb.stage2_mmu.stage2_tlb.read_misses            0                       # DTB read misses
system.cpu.dtb.stage2_mmu.stage2_tlb.walker.walkRequestOrigin_Requested::Data            0                       # Table walker requests started/completed, data/inst
system.cpu.dtb.stage2_mmu.stage2_tlb.walker.walkRequestOrigin_Requested::Inst            0                       # Table walker requests started/completed, data/inst
system.cpu.dtb.stage2_mmu.stage2_tlb.walker.walkRequestOrigin_Requested::total            0                       # Table walker requests started/completed, data/inst
system.cpu.dtb.stage2_mmu.stage2_tlb.walker.walkRequestOrigin_Completed::Data            0                       # Table walker requests started/completed, data/inst
system.cpu.dtb.stage2_mmu.stage2_tlb.walker.walkRequestOrigin_Completed::Inst            0                       # Table walker requests started/completed, data/inst
system.cpu.dtb.stage2_mmu.stage2_tlb.walker.walkRequestOrigin_Completed::total            0                       # Table walker requests started/completed, data/inst
system.cpu.dtb.stage2_mmu.stage2_tlb.walker.walkRequestOrigin::total            0                       # Table walker requests started/completed, data/inst
system.cpu.dtb.stage2_mmu.stage2_tlb.walker.walks            0                       # Table walker walks requested
system.cpu.dtb.stage2_mmu.stage2_tlb.write_accesses            0                       # DTB write accesses
system.cpu.dtb.stage2_mmu.stage2_tlb.write_hits            0                       # DTB write hits
system.cpu.dtb.stage2_mmu.stage2_tlb.write_misses            0                       # DTB write misses
system.cpu.dtb.walker.walkRequestOrigin_Requested::Data            0                       # Table walker requests started/completed, data/inst
system.cpu.dtb.walker.walkRequestOrigin_Requested::Inst            0                       # Table walker requests started/completed, data/inst
system.cpu.dtb.walker.walkRequestOrigin_Requested::total            0                       # Table walker requests started/completed, data/inst
system.cpu.dtb.walker.walkRequestOrigin_Completed::Data            0                       # Table walker requests started/completed, data/inst
system.cpu.dtb.walker.walkRequestOrigin_Completed::Inst            0                       # Table walker requests started/completed, data/inst
system.cpu.dtb.walker.walkRequestOrigin_Completed::total            0                       # Table walker requests started/completed, data/inst
system.cpu.dtb.walker.walkRequestOrigin::total            0                       # Table walker requests started/completed, data/inst
system.cpu.dtb.walker.walks                         0                       # Table walker walks requested
system.cpu.dtb.write_accesses                       0                       # DTB write accesses
system.cpu.dtb.write_hits                           0                       # DTB write hits
system.cpu.dtb.write_misses                         0                       # DTB write misses
system.cpu.fetch2.amo_instructions                  0                       # Number of memory atomic instructions successfully decoded
system.cpu.fetch2.fp_instructions                   0                       # Number of floating point instructions successfully decoded
system.cpu.fetch2.int_instructions              47419                       # Number of integer instructions successfully decoded
system.cpu.fetch2.load_instructions             40682                       # Number of memory load instructions successfully decoded
system.cpu.fetch2.store_instructions            10893                       # Number of memory store instructions successfully decoded
system.cpu.fetch2.vec_instructions                  0                       # Number of SIMD instructions successfully decoded
system.cpu.idleCycles                          407611                       # Total number of cycles that the object has spent stopped
system.cpu.ipc                               0.185245                       # IPC: instructions per cycle
system.cpu.itb.accesses                             0                       # DTB accesses
system.cpu.itb.align_faults                         0                       # Number of TLB faults due to alignment restrictions
system.cpu.itb.domain_faults                        0                       # Number of TLB faults due to domain restrictions
system.cpu.itb.flush_entries                        0                       # Number of entries that have been flushed from TLB
system.cpu.itb.flush_tlb                            0                       # Number of times complete TLB was flushed
system.cpu.itb.flush_tlb_asid                       0                       # Number of times TLB was flushed by ASID
system.cpu.itb.flush_tlb_mva                        0                       # Number of times TLB was flushed by MVA
system.cpu.itb.flush_tlb_mva_asid                   0                       # Number of times TLB was flushed by MVA & ASID
system.cpu.itb.hits                                 0                       # DTB hits
system.cpu.itb.inst_accesses                        0                       # ITB inst accesses
system.cpu.itb.inst_hits                            0                       # ITB inst hits
system.cpu.itb.inst_misses                          0                       # ITB inst misses
system.cpu.itb.misses                               0                       # DTB misses
system.cpu.itb.perms_faults                         0                       # Number of TLB faults due to permissions restrictions
system.cpu.itb.prefetch_faults                      0                       # Number of TLB faults due to prefetch
system.cpu.itb.read_accesses                        0                       # DTB read accesses
system.cpu.itb.read_hits                            0                       # DTB read hits
system.cpu.itb.read_misses                          0                       # DTB read misses
system.cpu.itb.stage2_mmu.stage2_tlb.accesses            0                       # DTB accesses
system.cpu.itb.stage2_mmu.stage2_tlb.align_faults            0                       # Number of TLB faults due to alignment restrictions
system.cpu.itb.stage2_mmu.stage2_tlb.domain_faults            0                       # Number of TLB faults due to domain restrictions
system.cpu.itb.stage2_mmu.stage2_tlb.flush_entries            0                       # Number of entries that have been flushed from TLB
system.cpu.itb.stage2_mmu.stage2_tlb.flush_tlb            0                       # Number of times complete TLB was flushed
system.cpu.itb.stage2_mmu.stage2_tlb.flush_tlb_asid            0                       # Number of times TLB was flushed by ASID
system.cpu.itb.stage2_mmu.stage2_tlb.flush_tlb_mva            0                       # Number of times TLB was flushed by MVA
system.cpu.itb.stage2_mmu.stage2_tlb.flush_tlb_mva_asid            0                       # Number of times TLB was flushed by MVA & ASID
system.cpu.itb.stage2_mmu.stage2_tlb.hits            0                       # DTB hits
system.cpu.itb.stage2_mmu.stage2_tlb.inst_accesses            0                       # ITB inst accesses
system.cpu.itb.stage2_mmu.stage2_tlb.inst_hits            0                       # ITB inst hits
system.cpu.itb.stage2_mmu.stage2_tlb.inst_misses            0                       # ITB inst misses
system.cpu.itb.stage2_mmu.stage2_tlb.misses            0                       # DTB misses
system.cpu.itb.stage2_mmu.stage2_tlb.perms_faults            0                       # Number of TLB faults due to permissions restrictions
system.cpu.itb.stage2_mmu.stage2_tlb.prefetch_faults            0                       # Number of TLB faults due to prefetch
system.cpu.itb.stage2_mmu.stage2_tlb.read_accesses            0                       # DTB read accesses
system.cpu.itb.stage2_mmu.stage2_tlb.read_hits            0                       # DTB read hits
system.cpu.itb.stage2_mmu.stage2_tlb.read_misses            0                       # DTB read misses
system.cpu.itb.stage2_mmu.stage2_tlb.walker.walkRequestOrigin_Requested::Data            0                       # Table walker requests started/completed, data/inst
system.cpu.itb.stage2_mmu.stage2_tlb.walker.walkRequestOrigin_Requested::Inst            0                       # Table walker requests started/completed, data/inst
system.cpu.itb.stage2_mmu.stage2_tlb.walker.walkRequestOrigin_Requested::total            0                       # Table walker requests started/completed, data/inst
system.cpu.itb.stage2_mmu.stage2_tlb.walker.walkRequestOrigin_Completed::Data            0                       # Table walker requests started/completed, data/inst
system.cpu.itb.stage2_mmu.stage2_tlb.walker.walkRequestOrigin_Completed::Inst            0                       # Table walker requests started/completed, data/inst
system.cpu.itb.stage2_mmu.stage2_tlb.walker.walkRequestOrigin_Completed::total            0                       # Table walker requests started/completed, data/inst
system.cpu.itb.stage2_mmu.stage2_tlb.walker.walkRequestOrigin::total            0                       # Table walker requests started/completed, data/inst
system.cpu.itb.stage2_mmu.stage2_tlb.walker.walks            0                       # Table walker walks requested
system.cpu.itb.stage2_mmu.stage2_tlb.write_accesses            0                       # DTB write accesses
system.cpu.itb.stage2_mmu.stage2_tlb.write_hits            0                       # DTB write hits
system.cpu.itb.stage2_mmu.stage2_tlb.write_misses            0                       # DTB write misses
system.cpu.itb.walker.walkRequestOrigin_Requested::Data            0                       # Table walker requests started/completed, data/inst
system.cpu.itb.walker.walkRequestOrigin_Requested::Inst            0                       # Table walker requests started/completed, data/inst
system.cpu.itb.walker.walkRequestOrigin_Requested::total            0                       # Table walker requests started/completed, data/inst
system.cpu.itb.walker.walkRequestOrigin_Completed::Data            0                       # Table walker requests started/completed, data/inst
system.cpu.itb.walker.walkRequestOrigin_Completed::Inst            0                       # Table walker requests started/completed, data/inst
system.cpu.itb.walker.walkRequestOrigin_Completed::total            0                       # Table walker requests started/completed, data/inst
system.cpu.itb.walker.walkRequestOrigin::total            0                       # Table walker requests started/completed, data/inst
system.cpu.itb.walker.walks                         0                       # Table walker walks requested
system.cpu.itb.write_accesses                       0                       # DTB write accesses
system.cpu.itb.write_hits                           0                       # DTB write hits
system.cpu.itb.write_misses                         0                       # DTB write misses
system.cpu.numCycles                           539831                       # number of cpu cycles simulated
system.cpu.numFetchSuspends                         0                       # Number of times Execute suspended instruction fetching
system.cpu.numWorkItemsCompleted                    0                       # number of work items this cpu completed
system.cpu.numWorkItemsStarted                      0                       # number of work items this cpu started
system.cpu.op_class_0::No_OpClass                   0      0.00%      0.00% # Class of committed instruction
system.cpu.op_class_0::IntAlu                   50032     49.43%     49.43% # Class of committed instruction
system.cpu.op_class_0::IntMult                     47      0.05%     49.47% # Class of committed instruction
system.cpu.op_class_0::IntDiv                       0      0.00%     49.47% # Class of committed instruction
system.cpu.op_class_0::FloatAdd                     0      0.00%     49.47% # Class of committed instruction
system.cpu.op_class_0::FloatCmp                     0      0.00%     49.47% # Class of committed instruction
system.cpu.op_class_0::FloatCvt                     0      0.00%     49.47% # Class of committed instruction
system.cpu.op_class_0::FloatMult                    0      0.00%     49.47% # Class of committed instruction
system.cpu.op_class_0::FloatMultAcc                 0      0.00%     49.47% # Class of committed instruction
system.cpu.op_class_0::FloatDiv                     0      0.00%     49.47% # Class of committed instruction
system.cpu.op_class_0::FloatMisc                    0      0.00%     49.47% # Class of committed instruction
system.cpu.op_class_0::FloatSqrt                    0      0.00%     49.47% # Class of committed instruction
system.cpu.op_class_0::SimdAdd                      0      0.00%     49.47% # Class of committed instruction
system.cpu.op_class_0::SimdAddAcc                   0      0.00%     49.47% # Class of committed instruction
system.cpu.op_class_0::SimdAlu                      0      0.00%     49.47% # Class of committed instruction
system.cpu.op_class_0::SimdCmp                      0      0.00%     49.47% # Class of committed instruction
system.cpu.op_class_0::SimdCvt                      0      0.00%     49.47% # Class of committed instruction
system.cpu.op_class_0::SimdMisc                     0      0.00%     49.47% # Class of committed instruction
system.cpu.op_class_0::SimdMult                     0      0.00%     49.47% # Class of committed instruction
system.cpu.op_class_0::SimdMultAcc                  0      0.00%     49.47% # Class of committed instruction
system.cpu.op_class_0::SimdShift                    0      0.00%     49.47% # Class of committed instruction
system.cpu.op_class_0::SimdShiftAcc                 0      0.00%     49.47% # Class of committed instruction
system.cpu.op_class_0::SimdDiv                      0      0.00%     49.47% # Class of committed instruction
system.cpu.op_class_0::SimdSqrt                     0      0.00%     49.47% # Class of committed instruction
system.cpu.op_class_0::SimdFloatAdd                 0      0.00%     49.47% # Class of committed instruction
system.cpu.op_class_0::SimdFloatAlu                 0      0.00%     49.47% # Class of committed instruction
system.cpu.op_class_0::SimdFloatCmp                 0      0.00%     49.47% # Class of committed instruction
system.cpu.op_class_0::SimdFloatCvt                 0      0.00%     49.47% # Class of committed instruction
system.cpu.op_class_0::SimdFloatDiv                 0      0.00%     49.47% # Class of committed instruction
system.cpu.op_class_0::SimdFloatMisc               17      0.02%     49.49% # Class of committed instruction
system.cpu.op_class_0::SimdFloatMult                0      0.00%     49.49% # Class of committed instruction
system.cpu.op_class_0::SimdFloatMultAcc             0      0.00%     49.49% # Class of committed instruction
system.cpu.op_class_0::SimdFloatSqrt                0      0.00%     49.49% # Class of committed instruction
system.cpu.op_class_0::SimdReduceAdd                0      0.00%     49.49% # Class of committed instruction
system.cpu.op_class_0::SimdReduceAlu                0      0.00%     49.49% # Class of committed instruction
system.cpu.op_class_0::SimdReduceCmp                0      0.00%     49.49% # Class of committed instruction
system.cpu.op_class_0::SimdFloatReduceAdd            0      0.00%     49.49% # Class of committed instruction
system.cpu.op_class_0::SimdFloatReduceCmp            0      0.00%     49.49% # Class of committed instruction
system.cpu.op_class_0::SimdAes                      0      0.00%     49.49% # Class of committed instruction
system.cpu.op_class_0::SimdAesMix                   0      0.00%     49.49% # Class of committed instruction
system.cpu.op_class_0::SimdSha1Hash                 0      0.00%     49.49% # Class of committed instruction
system.cpu.op_class_0::SimdSha1Hash2                0      0.00%     49.49% # Class of committed instruction
system.cpu.op_class_0::SimdSha256Hash               0      0.00%     49.49% # Class of committed instruction
system.cpu.op_class_0::SimdSha256Hash2              0      0.00%     49.49% # Class of committed instruction
system.cpu.op_class_0::SimdShaSigma2                0      0.00%     49.49% # Class of committed instruction
system.cpu.op_class_0::SimdShaSigma3                0      0.00%     49.49% # Class of committed instruction
system.cpu.op_class_0::SimdPredAlu                  0      0.00%     49.49% # Class of committed instruction
system.cpu.op_class_0::MemRead                  39972     39.49%     88.98% # Class of committed instruction
system.cpu.op_class_0::MemWrite                 11153     11.02%    100.00% # Class of committed instruction
system.cpu.op_class_0::FloatMemRead                 0      0.00%    100.00% # Class of committed instruction
system.cpu.op_class_0::FloatMemWrite                0      0.00%    100.00% # Class of committed instruction
system.cpu.op_class_0::IprAccess                    0      0.00%    100.00% # Class of committed instruction
system.cpu.op_class_0::InstPrefetch                 0      0.00%    100.00% # Class of committed instruction
system.cpu.op_class_0::total                   101221                       # Class of committed instruction
system.cpu.tickCycles                          132220                       # Number of cycles that the object actually ticked
system.cpu.workload.numSyscalls                    10                       # Number of system calls
system.membus.snoop_filter.hit_multi_requests            0                       # Number of requests hitting in the snoop filter with multiple (>1) holders of the requested data.
system.membus.snoop_filter.hit_multi_snoops            0                       # Number of snoops hitting in the snoop filter with multiple (>1) holders of the requested data.
system.membus.snoop_filter.hit_single_requests          755                       # Number of requests hitting in the snoop filter with a single holder of the requested data.
system.membus.snoop_filter.hit_single_snoops            0                       # Number of snoops hitting in the snoop filter with a single holder of the requested data.
system.membus.snoop_filter.tot_requests          5899                       # Total number of requests made to the snoop filter.
system.membus.snoop_filter.tot_snoops               0                       # Total number of snoops made to the snoop filter.
system.tol2bus.snoop_filter.hit_multi_requests           12                       # Number of requests hitting in the snoop filter with multiple (>1) holders of the requested data.
system.tol2bus.snoop_filter.hit_multi_snoops            0                       # Number of snoops hitting in the snoop filter with multiple (>1) holders of the requested data.
system.tol2bus.snoop_filter.hit_single_requests         4990                       # Number of requests hitting in the snoop filter with a single holder of the requested data.
system.tol2bus.snoop_filter.hit_single_snoops           17                       # Number of snoops hitting in the snoop filter with a single holder of the requested data.
system.tol2bus.snoop_filter.tot_requests        10218                       # Total number of requests made to the snoop filter.
system.tol2bus.snoop_filter.tot_snoops             17                       # Total number of snoops made to the snoop filter.
system.membus.pwrStateResidencyTicks::UNDEFINED    269915500                       # Cumulative time (in ticks) in various power states
system.membus.trans_dist::ReadResp                277                       # Transaction distribution
system.membus.trans_dist::WritebackDirty          740                       # Transaction distribution
system.membus.trans_dist::CleanEvict               15                       # Transaction distribution
system.membus.trans_dist::ReadExReq              4867                       # Transaction distribution
system.membus.trans_dist::ReadExResp             4867                       # Transaction distribution
system.membus.trans_dist::ReadSharedReq           277                       # Transaction distribution
system.membus.pkt_count_system.l2.mem_side::system.mem_ctrls.port        11043                       # Packet count per connected master and slave (bytes)
system.membus.pkt_count::total                  11043                       # Packet count per connected master and slave (bytes)
system.membus.pkt_size_system.l2.mem_side::system.mem_ctrls.port       753152                       # Cumulative packet size per connected master and slave (bytes)
system.membus.pkt_size::total                  753152                       # Cumulative packet size per connected master and slave (bytes)
system.membus.snoops                                0                       # Total snoops (count)
system.membus.snoopTraffic                          0                       # Total snoop traffic (bytes)
system.membus.snoop_fanout::samples              5144                       # Request fanout histogram
system.membus.snoop_fanout::mean                    0                       # Request fanout histogram
system.membus.snoop_fanout::stdev                   0                       # Request fanout histogram
system.membus.snoop_fanout::underflows              0      0.00%      0.00% # Request fanout histogram
system.membus.snoop_fanout::0                    5144    100.00%    100.00% # Request fanout histogram
system.membus.snoop_fanout::1                       0      0.00%    100.00% # Request fanout histogram
system.membus.snoop_fanout::overflows               0      0.00%    100.00% # Request fanout histogram
system.membus.snoop_fanout::min_value               0                       # Request fanout histogram
system.membus.snoop_fanout::max_value               0                       # Request fanout histogram
system.membus.snoop_fanout::total                5144                       # Request fanout histogram
system.membus.respLayer1.occupancy           47666000                       # Layer occupancy (ticks)
system.membus.respLayer1.utilization             17.7                       # Layer utilization (%)
system.membus.reqLayer0.occupancy            13204500                       # Layer occupancy (ticks)
system.membus.reqLayer0.utilization               4.9                       # Layer utilization (%)
system.tol2bus.pwrStateResidencyTicks::UNDEFINED    269915500                       # Cumulative time (in ticks) in various power states
system.tol2bus.trans_dist::ReadResp               372                       # Transaction distribution
system.tol2bus.trans_dist::WritebackDirty         5547                       # Transaction distribution
system.tol2bus.trans_dist::WritebackClean          161                       # Transaction distribution
system.tol2bus.trans_dist::CleanEvict              42                       # Transaction distribution
system.tol2bus.trans_dist::ReadExReq             4868                       # Transaction distribution
system.tol2bus.trans_dist::ReadExResp            4867                       # Transaction distribution
system.tol2bus.trans_dist::ReadCleanReq           295                       # Transaction distribution
system.tol2bus.trans_dist::ReadSharedReq           77                       # Transaction distribution
system.tol2bus.pkt_count_system.cpu.icache.mem_side::system.l2.cpu_side          751                       # Packet count per connected master and slave (bytes)
system.tol2bus.pkt_count_system.cpu.dcache.mem_side::system.l2.cpu_side        14706                       # Packet count per connected master and slave (bytes)
system.tol2bus.pkt_count::total                 15457                       # Packet count per connected master and slave (bytes)
system.tol2bus.pkt_size_system.cpu.icache.mem_side::system.l2.cpu_side        58368                       # Cumulative packet size per connected master and slave (bytes)
system.tol2bus.pkt_size_system.cpu.dcache.mem_side::system.l2.cpu_side      1248128                       # Cumulative packet size per connected master and slave (bytes)
system.tol2bus.pkt_size::total                1306496                       # Cumulative packet size per connected master and slave (bytes)
system.tol2bus.snoops                             772                       # Total snoops (count)
system.tol2bus.snoopTraffic                     94720                       # Total snoop traffic (bytes)
system.tol2bus.snoop_fanout::samples             6012                       # Request fanout histogram
system.tol2bus.snoop_fanout::mean            0.006820                       # Request fanout histogram
system.tol2bus.snoop_fanout::stdev           0.082306                       # Request fanout histogram
system.tol2bus.snoop_fanout::underflows             0      0.00%      0.00% # Request fanout histogram
system.tol2bus.snoop_fanout::0                   5971     99.32%     99.32% # Request fanout histogram
system.tol2bus.snoop_fanout::1                     41      0.68%    100.00% # Request fanout histogram
system.tol2bus.snoop_fanout::2                      0      0.00%    100.00% # Request fanout histogram
system.tol2bus.snoop_fanout::overflows              0      0.00%    100.00% # Request fanout histogram
system.tol2bus.snoop_fanout::min_value              0                       # Request fanout histogram
system.tol2bus.snoop_fanout::max_value              1                       # Request fanout histogram
system.tol2bus.snoop_fanout::total               6012                       # Request fanout histogram
system.tol2bus.reqLayer0.occupancy           15045000                       # Layer occupancy (ticks)
system.tol2bus.reqLayer0.utilization              5.6                       # Layer utilization (%)
system.tol2bus.respLayer1.occupancy          12361497                       # Layer occupancy (ticks)
system.tol2bus.respLayer1.utilization             4.6                       # Layer utilization (%)
system.tol2bus.respLayer0.occupancy            737500                       # Layer occupancy (ticks)
system.tol2bus.respLayer0.utilization             0.3                       # Layer utilization (%)
system.voltage_domain.voltage                       1                       # Voltage in Volts
system.clk_domain.clock                          1000                       # Clock period in ticks
system.l2.pwrStateResidencyTicks::UNDEFINED    269915500                       # Cumulative time (in ticks) in various power states
system.l2.demand_hits::.cpu.inst                   75                       # number of demand (read+write) hits
system.l2.demand_hits::.cpu.data                   17                       # number of demand (read+write) hits
system.l2.demand_hits::total                       92                       # number of demand (read+write) hits
system.l2.overall_hits::.cpu.inst                  75                       # number of overall hits
system.l2.overall_hits::.cpu.data                  17                       # number of overall hits
system.l2.overall_hits::total                      92                       # number of overall hits
system.l2.demand_misses::.cpu.inst                220                       # number of demand (read+write) misses
system.l2.demand_misses::.cpu.data               4928                       # number of demand (read+write) misses
system.l2.demand_misses::total                   5148                       # number of demand (read+write) misses
system.l2.overall_misses::.cpu.inst               220                       # number of overall misses
system.l2.overall_misses::.cpu.data              4928                       # number of overall misses
system.l2.overall_misses::total                  5148                       # number of overall misses
system.l2.demand_miss_latency::.cpu.inst     18547500                       # number of demand (read+write) miss cycles
system.l2.demand_miss_latency::.cpu.data    413473000                       # number of demand (read+write) miss cycles
system.l2.demand_miss_latency::total        432020500                       # number of demand (read+write) miss cycles
system.l2.overall_miss_latency::.cpu.inst     18547500                       # number of overall miss cycles
system.l2.overall_miss_latency::.cpu.data    413473000                       # number of overall miss cycles
system.l2.overall_miss_latency::total       432020500                       # number of overall miss cycles
system.l2.demand_accesses::.cpu.inst              295                       # number of demand (read+write) accesses
system.l2.demand_accesses::.cpu.data             4945                       # number of demand (read+write) accesses
system.l2.demand_accesses::total                 5240                       # number of demand (read+write) accesses
system.l2.overall_accesses::.cpu.inst             295                       # number of overall (read+write) accesses
system.l2.overall_accesses::.cpu.data            4945                       # number of overall (read+write) accesses
system.l2.overall_accesses::total                5240                       # number of overall (read+write) accesses
system.l2.demand_miss_rate::.cpu.inst        0.745763                       # miss rate for demand accesses
system.l2.demand_miss_rate::.cpu.data        0.996562                       # miss rate for demand accesses
system.l2.demand_miss_rate::total            0.982443                       # miss rate for demand accesses
system.l2.overall_miss_rate::.cpu.inst       0.745763                       # miss rate for overall accesses
system.l2.overall_miss_rate::.cpu.data       0.996562                       # miss rate for overall accesses
system.l2.overall_miss_rate::total           0.982443                       # miss rate for overall accesses
system.l2.demand_avg_miss_latency::.cpu.inst 84306.818182                       # average overall miss latency
system.l2.demand_avg_miss_latency::.cpu.data 83902.800325                       # average overall miss latency
system.l2.demand_avg_miss_latency::total 83920.066045                       # average overall miss latency
system.l2.overall_avg_miss_latency::.cpu.inst 84306.818182                       # average overall miss latency
system.l2.overall_avg_miss_latency::.cpu.data 83902.800325                       # average overall miss latency
system.l2.overall_avg_miss_latency::total 83920.066045                       # average overall miss latency
system.l2.blocked_cycles::no_mshrs                  0                       # number of cycles access was blocked
system.l2.blocked_cycles::no_targets                0                       # number of cycles access was blocked
system.l2.blocked::no_mshrs                         0                       # number of cycles access was blocked
system.l2.blocked::no_targets                       0                       # number of cycles access was blocked
system.l2.avg_blocked_cycles::no_mshrs            nan                       # average number of cycles each access was blocked
system.l2.avg_blocked_cycles::no_targets          nan                       # average number of cycles each access was blocked
system.l2.writebacks::.writebacks                 740                       # number of writebacks
system.l2.writebacks::total                       740                       # number of writebacks
system.l2.demand_mshr_hits::.cpu.data               3                       # number of demand (read+write) MSHR hits
system.l2.demand_mshr_hits::total                   3                       # number of demand (read+write) MSHR hits
system.l2.overall_mshr_hits::.cpu.data              3                       # number of overall MSHR hits
system.l2.overall_mshr_hits::total                  3                       # number of overall MSHR hits
system.l2.demand_mshr_misses::.cpu.inst           220                       # number of demand (read+write) MSHR misses
system.l2.demand_mshr_misses::.cpu.data          4925                       # number of demand (read+write) MSHR misses
system.l2.demand_mshr_misses::total              5145                       # number of demand (read+write) MSHR misses
system.l2.overall_mshr_misses::.cpu.inst          220                       # number of overall MSHR misses
system.l2.overall_mshr_misses::.cpu.data         4925                       # number of overall MSHR misses
system.l2.overall_mshr_misses::total             5145                       # number of overall MSHR misses
system.l2.demand_mshr_miss_latency::.cpu.inst     16347500                       # number of demand (read+write) MSHR miss cycles
system.l2.demand_mshr_miss_latency::.cpu.data    364026500                       # number of demand (read+write) MSHR miss cycles
system.l2.demand_mshr_miss_latency::total    380374000                       # number of demand (read+write) MSHR miss cycles
system.l2.overall_mshr_miss_latency::.cpu.inst     16347500                       # number of overall MSHR miss cycles
system.l2.overall_mshr_miss_latency::.cpu.data    364026500                       # number of overall MSHR miss cycles
system.l2.overall_mshr_miss_latency::total    380374000                       # number of overall MSHR miss cycles
system.l2.demand_mshr_miss_rate::.cpu.inst     0.745763                       # mshr miss rate for demand accesses
system.l2.demand_mshr_miss_rate::.cpu.data     0.995956                       # mshr miss rate for demand accesses
system.l2.demand_mshr_miss_rate::total       0.981870                       # mshr miss rate for demand accesses
system.l2.overall_mshr_miss_rate::.cpu.inst     0.745763                       # mshr miss rate for overall accesses
system.l2.overall_mshr_miss_rate::.cpu.data     0.995956                       # mshr miss rate for overall accesses
system.l2.overall_mshr_miss_rate::total      0.981870                       # mshr miss rate for overall accesses
system.l2.demand_avg_mshr_miss_latency::.cpu.inst 74306.818182                       # average overall mshr miss latency
system.l2.demand_avg_mshr_miss_latency::.cpu.data 73914.010152                       # average overall mshr miss latency
system.l2.demand_avg_mshr_miss_latency::total 73930.806608                       # average overall mshr miss latency
system.l2.overall_avg_mshr_miss_latency::.cpu.inst 74306.818182                       # average overall mshr miss latency
system.l2.overall_avg_mshr_miss_latency::.cpu.data 73914.010152                       # average overall mshr miss latency
system.l2.overall_avg_mshr_miss_latency::total 73930.806608                       # average overall mshr miss latency
system.l2.replacements                            772                       # number of replacements
system.l2.WritebackDirty_hits::.writebacks         4807                       # number of WritebackDirty hits
system.l2.WritebackDirty_hits::total             4807                       # number of WritebackDirty hits
system.l2.WritebackDirty_accesses::.writebacks         4807                       # number of WritebackDirty accesses(hits+misses)
system.l2.WritebackDirty_accesses::total         4807                       # number of WritebackDirty accesses(hits+misses)
system.l2.WritebackClean_hits::.writebacks          150                       # number of WritebackClean hits
system.l2.WritebackClean_hits::total              150                       # number of WritebackClean hits
system.l2.WritebackClean_accesses::.writebacks          150                       # number of WritebackClean accesses(hits+misses)
system.l2.WritebackClean_accesses::total          150                       # number of WritebackClean accesses(hits+misses)
system.l2.ReadExReq_misses::.cpu.data            4868                       # number of ReadExReq misses
system.l2.ReadExReq_misses::total                4868                       # number of ReadExReq misses
system.l2.ReadExReq_miss_latency::.cpu.data    408326500                       # number of ReadExReq miss cycles
system.l2.ReadExReq_miss_latency::total     408326500                       # number of ReadExReq miss cycles
system.l2.ReadExReq_accesses::.cpu.data          4868                       # number of ReadExReq accesses(hits+misses)
system.l2.ReadExReq_accesses::total              4868                       # number of ReadExReq accesses(hits+misses)
system.l2.ReadExReq_miss_rate::.cpu.data            1                       # miss rate for ReadExReq accesses
system.l2.ReadExReq_miss_rate::total                1                       # miss rate for ReadExReq accesses
system.l2.ReadExReq_avg_miss_latency::.cpu.data 83879.724733                       # average ReadExReq miss latency
system.l2.ReadExReq_avg_miss_latency::total 83879.724733                       # average ReadExReq miss latency
system.l2.ReadExReq_mshr_misses::.cpu.data         4868                       # number of ReadExReq MSHR misses
system.l2.ReadExReq_mshr_misses::total           4868                       # number of ReadExReq MSHR misses
system.l2.ReadExReq_mshr_miss_latency::.cpu.data    359656500                       # number of ReadExReq MSHR miss cycles
system.l2.ReadExReq_mshr_miss_latency::total    359656500                       # number of ReadExReq MSHR miss cycles
system.l2.ReadExReq_mshr_miss_rate::.cpu.data            1                       # mshr miss rate for ReadExReq accesses
system.l2.ReadExReq_mshr_miss_rate::total            1                       # mshr miss rate for ReadExReq accesses
system.l2.ReadExReq_avg_mshr_miss_latency::.cpu.data 73881.778965                       # average ReadExReq mshr miss latency
system.l2.ReadExReq_avg_mshr_miss_latency::total 73881.778965                       # average ReadExReq mshr miss latency
system.l2.ReadCleanReq_hits::.cpu.inst             75                       # number of ReadCleanReq hits
system.l2.ReadCleanReq_hits::total                 75                       # number of ReadCleanReq hits
system.l2.ReadCleanReq_misses::.cpu.inst          220                       # number of ReadCleanReq misses
system.l2.ReadCleanReq_misses::total              220                       # number of ReadCleanReq misses
system.l2.ReadCleanReq_miss_latency::.cpu.inst     18547500                       # number of ReadCleanReq miss cycles
system.l2.ReadCleanReq_miss_latency::total     18547500                       # number of ReadCleanReq miss cycles
system.l2.ReadCleanReq_accesses::.cpu.inst          295                       # number of ReadCleanReq accesses(hits+misses)
system.l2.ReadCleanReq_accesses::total            295                       # number of ReadCleanReq accesses(hits+misses)
system.l2.ReadCleanReq_miss_rate::.cpu.inst     0.745763                       # miss rate for ReadCleanReq accesses
system.l2.ReadCleanReq_miss_rate::total      0.745763                       # miss rate for ReadCleanReq accesses
system.l2.ReadCleanReq_avg_miss_latency::.cpu.inst 84306.818182                       # average ReadCleanReq miss latency
system.l2.ReadCleanReq_avg_miss_latency::total 84306.818182                       # average ReadCleanReq miss latency
system.l2.ReadCleanReq_mshr_misses::.cpu.inst          220                       # number of ReadCleanReq MSHR misses
system.l2.ReadCleanReq_mshr_misses::total          220                       # number of ReadCleanReq MSHR misses
system.l2.ReadCleanReq_mshr_miss_latency::.cpu.inst     16347500                       # number of ReadCleanReq MSHR miss cycles
system.l2.ReadCleanReq_mshr_miss_latency::total     16347500                       # number of ReadCleanReq MSHR miss cycles
system.l2.ReadCleanReq_mshr_miss_rate::.cpu.inst     0.745763                       # mshr miss rate for ReadCleanReq accesses
system.l2.ReadCleanReq_mshr_miss_rate::total     0.745763                       # mshr miss rate for ReadCleanReq accesses
system.l2.ReadCleanReq_avg_mshr_miss_latency::.cpu.inst 74306.818182                       # average ReadCleanReq mshr miss latency
system.l2.ReadCleanReq_avg_mshr_miss_latency::total 74306.818182                       # average ReadCleanReq mshr miss latency
system.l2.ReadSharedReq_hits::.cpu.data            17                       # number of ReadSharedReq hits
system.l2.ReadSharedReq_hits::total                17                       # number of ReadSharedReq hits
system.l2.ReadSharedReq_misses::.cpu.data           60                       # number of ReadSharedReq misses
system.l2.ReadSharedReq_misses::total              60                       # number of ReadSharedReq misses
system.l2.ReadSharedReq_miss_latency::.cpu.data      5146500                       # number of ReadSharedReq miss cycles
system.l2.ReadSharedReq_miss_latency::total      5146500                       # number of ReadSharedReq miss cycles
system.l2.ReadSharedReq_accesses::.cpu.data           77                       # number of ReadSharedReq accesses(hits+misses)
system.l2.ReadSharedReq_accesses::total            77                       # number of ReadSharedReq accesses(hits+misses)
system.l2.ReadSharedReq_miss_rate::.cpu.data     0.779221                       # miss rate for ReadSharedReq accesses
system.l2.ReadSharedReq_miss_rate::total     0.779221                       # miss rate for ReadSharedReq accesses
system.l2.ReadSharedReq_avg_miss_latency::.cpu.data        85775                       # average ReadSharedReq miss latency
system.l2.ReadSharedReq_avg_miss_latency::total        85775                       # average ReadSharedReq miss latency
system.l2.ReadSharedReq_mshr_hits::.cpu.data            3                       # number of ReadSharedReq MSHR hits
system.l2.ReadSharedReq_mshr_hits::total            3                       # number of ReadSharedReq MSHR hits
system.l2.ReadSharedReq_mshr_misses::.cpu.data           57                       # number of ReadSharedReq MSHR misses
system.l2.ReadSharedReq_mshr_misses::total           57                       # number of ReadSharedReq MSHR misses
system.l2.ReadSharedReq_mshr_miss_latency::.cpu.data      4370000                       # number of ReadSharedReq MSHR miss cycles
system.l2.ReadSharedReq_mshr_miss_latency::total      4370000                       # number of ReadSharedReq MSHR miss cycles
system.l2.ReadSharedReq_mshr_miss_rate::.cpu.data     0.740260                       # mshr miss rate for ReadSharedReq accesses
system.l2.ReadSharedReq_mshr_miss_rate::total     0.740260                       # mshr miss rate for ReadSharedReq accesses
system.l2.ReadSharedReq_avg_mshr_miss_latency::.cpu.data 76666.666667                       # average ReadSharedReq mshr miss latency
system.l2.ReadSharedReq_avg_mshr_miss_latency::total 76666.666667                       # average ReadSharedReq mshr miss latency
system.l2.tags.pwrStateResidencyTicks::UNDEFINED    269915500                       # Cumulative time (in ticks) in various power states
system.l2.tags.tagsinuse                  2426.189489                       # Cycle average of tags in use
system.l2.tags.total_refs                       10202                       # Total number of references to valid blocks.
system.l2.tags.sampled_refs                      5144                       # Sample count of references to valid blocks.
system.l2.tags.avg_refs                      1.983281                       # Average number of references to valid blocks.
system.l2.tags.warmup_cycle                     82000                       # Cycle when the warmup percentage was hit.
system.l2.tags.occ_blocks::.cpu.inst       201.784862                       # Average occupied blocks per requestor
system.l2.tags.occ_blocks::.cpu.data      2224.404626                       # Average occupied blocks per requestor
system.l2.tags.occ_percent::.cpu.inst        0.006158                       # Average percentage of cache occupancy
system.l2.tags.occ_percent::.cpu.data        0.067883                       # Average percentage of cache occupancy
system.l2.tags.occ_percent::total            0.074041                       # Average percentage of cache occupancy
system.l2.tags.occ_task_id_blocks::1024          4372                       # Occupied blocks per task id
system.l2.tags.age_task_id_blocks_1024::0          179                       # Occupied blocks per task id
system.l2.tags.age_task_id_blocks_1024::1         1757                       # Occupied blocks per task id
system.l2.tags.age_task_id_blocks_1024::2         2436                       # Occupied blocks per task id
system.l2.tags.occ_task_id_percent::1024     0.133423                       # Percentage of cache occupancy per task id
system.l2.tags.tag_accesses                     45968                       # Number of tag accesses
system.l2.tags.data_accesses                    45968                       # Number of data accesses
system.cpu_voltage_domain.voltage                   1                       # Voltage in Volts
system.mem_ctrls.pwrStateResidencyTicks::UNDEFINED    269915500                       # Cumulative time (in ticks) in various power states
system.mem_ctrls.bytes_read::.cpu.inst          28160                       # Number of bytes read from this memory
system.mem_ctrls.bytes_read::.cpu.data         630272                       # Number of bytes read from this memory
system.mem_ctrls.bytes_read::total             658432                       # Number of bytes read from this memory
system.mem_ctrls.bytes_inst_read::.cpu.inst        28160                       # Number of instructions bytes read from this memory
system.mem_ctrls.bytes_inst_read::total         28160                       # Number of instructions bytes read from this memory
system.mem_ctrls.bytes_written::.writebacks        94720                       # Number of bytes written to this memory
system.mem_ctrls.bytes_written::total           94720                       # Number of bytes written to this memory
system.mem_ctrls.num_reads::.cpu.inst             220                       # Number of read requests responded to by this memory
system.mem_ctrls.num_reads::.cpu.data            4924                       # Number of read requests responded to by this memory
system.mem_ctrls.num_reads::total                5144                       # Number of read requests responded to by this memory
system.mem_ctrls.num_writes::.writebacks          740                       # Number of write requests responded to by this memory
system.mem_ctrls.num_writes::total                740                       # Number of write requests responded to by this memory
system.mem_ctrls.bw_read::.cpu.inst         104328947                       # Total read bandwidth from this memory (bytes/s)
system.mem_ctrls.bw_read::.cpu.data        2335071532                       # Total read bandwidth from this memory (bytes/s)
system.mem_ctrls.bw_read::total            2439400479                       # Total read bandwidth from this memory (bytes/s)
system.mem_ctrls.bw_inst_read::.cpu.inst    104328947                       # Instruction read bandwidth from this memory (bytes/s)
system.mem_ctrls.bw_inst_read::total        104328947                       # Instruction read bandwidth from this memory (bytes/s)
system.mem_ctrls.bw_write::.writebacks      350924641                       # Write bandwidth from this memory (bytes/s)
system.mem_ctrls.bw_write::total            350924641                       # Write bandwidth from this memory (bytes/s)
system.mem_ctrls.bw_total::.writebacks      350924641                       # Total bandwidth to/from this memory (bytes/s)
system.mem_ctrls.bw_total::.cpu.inst        104328947                       # Total bandwidth to/from this memory (bytes/s)
system.mem_ctrls.bw_total::.cpu.data       2335071532                       # Total bandwidth to/from this memory (bytes/s)
system.mem_ctrls.bw_total::total           2790325120                       # Total bandwidth to/from this memory (bytes/s)
system.mem_ctrls.avgPriority_.writebacks::samples      1480.00                       # Average QoS priority value for accepted requests
system.mem_ctrls.avgPriority_.cpu.inst::samples       440.00                       # Average QoS priority value for accepted requests
system.mem_ctrls.avgPriority_.cpu.data::samples      9848.00                       # Average QoS priority value for accepted requests
system.mem_ctrls.priorityMinLatency      0.000000018750                       # per QoS priority minimum request to response latency (s)
system.mem_ctrls.priorityMaxLatency      0.000016833500                       # per QoS priority maximum request to response latency (s)
system.mem_ctrls.numReadWriteTurnArounds           91                       # Number of turnarounds from READ to WRITE
system.mem_ctrls.numWriteReadTurnArounds           91                       # Number of turnarounds from WRITE to READ
system.mem_ctrls.numStayReadState               16011                       # Number of times bus staying in READ state
system.mem_ctrls.numStayWriteState               1367                       # Number of times bus staying in WRITE state
system.mem_ctrls.readReqs                        5144                       # Number of read requests accepted
system.mem_ctrls.writeReqs                        740                       # Number of write requests accepted
system.mem_ctrls.readBursts                     10288                       # Number of DRAM read bursts, including those serviced by the write queue
system.mem_ctrls.writeBursts                     1480                       # Number of DRAM write bursts, including those merged in the write queue
system.mem_ctrls.servicedByWrQ                      0                       # Number of DRAM read bursts serviced by the write queue
system.mem_ctrls.mergedWrBursts                     0                       # Number of DRAM write bursts merged with an existing one
system.mem_ctrls.neitherReadNorWriteReqs            0                       # Number of requests that are neither read nor write
system.mem_ctrls.perBankRdBursts::0               728                       # Per bank write bursts
system.mem_ctrls.perBankRdBursts::1               662                       # Per bank write bursts
system.mem_ctrls.perBankRdBursts::2               674                       # Per bank write bursts
system.mem_ctrls.perBankRdBursts::3               624                       # Per bank write bursts
system.mem_ctrls.perBankRdBursts::4               682                       # Per bank write bursts
system.mem_ctrls.perBankRdBursts::5               624                       # Per bank write bursts
system.mem_ctrls.perBankRdBursts::6               606                       # Per bank write bursts
system.mem_ctrls.perBankRdBursts::7               626                       # Per bank write bursts
system.mem_ctrls.perBankRdBursts::8               644                       # Per bank write bursts
system.mem_ctrls.perBankRdBursts::9               614                       # Per bank write bursts
system.mem_ctrls.perBankRdBursts::10              646                       # Per bank write bursts
system.mem_ctrls.perBankRdBursts::11              608                       # Per bank write bursts
system.mem_ctrls.perBankRdBursts::12              608                       # Per bank write bursts
system.mem_ctrls.perBankRdBursts::13              634                       # Per bank write bursts
system.mem_ctrls.perBankRdBursts::14              654                       # Per bank write bursts
system.mem_ctrls.perBankRdBursts::15              654                       # Per bank write bursts
system.mem_ctrls.perBankWrBursts::0                92                       # Per bank write bursts
system.mem_ctrls.perBankWrBursts::1                80                       # Per bank write bursts
system.mem_ctrls.perBankWrBursts::2                86                       # Per bank write bursts
system.mem_ctrls.perBankWrBursts::3                82                       # Per bank write bursts
system.mem_ctrls.perBankWrBursts::4                82                       # Per bank write bursts
system.mem_ctrls.perBankWrBursts::5                80                       # Per bank write bursts
system.mem_ctrls.perBankWrBursts::6                90                       # Per bank write bursts
system.mem_ctrls.perBankWrBursts::7                96                       # Per bank write bursts
system.mem_ctrls.perBankWrBursts::8                96                       # Per bank write bursts
system.mem_ctrls.perBankWrBursts::9                96                       # Per bank write bursts
system.mem_ctrls.perBankWrBursts::10               96                       # Per bank write bursts
system.mem_ctrls.perBankWrBursts::11               96                       # Per bank write bursts
system.mem_ctrls.perBankWrBursts::12               96                       # Per bank write bursts
system.mem_ctrls.perBankWrBursts::13               96                       # Per bank write bursts
system.mem_ctrls.perBankWrBursts::14               96                       # Per bank write bursts
system.mem_ctrls.perBankWrBursts::15               96                       # Per bank write bursts
system.mem_ctrls.avgRdQLen                       3.49                       # Average read queue length when enqueuing
system.mem_ctrls.avgWrQLen                       4.74                       # Average write queue length when enqueuing
system.mem_ctrls.totQLat                    118845000                       # Total ticks spent queuing
system.mem_ctrls.totBusLat                   51440000                       # Total ticks spent in databus transfers
system.mem_ctrls.totMemAccLat               311745000                       # Total ticks spent from burst creation until serviced by the DRAM
system.mem_ctrls.avgQLat                     11551.81                       # Average queueing delay per DRAM burst
system.mem_ctrls.avgBusLat                    5000.00                       # Average bus latency per DRAM burst
system.mem_ctrls.avgMemAccLat                30301.81                       # Average memory access latency per DRAM burst
system.mem_ctrls.numRdRetry                         0                       # Number of times read queue was full causing retry
system.mem_ctrls.numWrRetry                         0                       # Number of times write queue was full causing retry
system.mem_ctrls.readRowHits                     9555                       # Number of row buffer hits during reads
system.mem_ctrls.writeRowHits                    1356                       # Number of row buffer hits during writes
system.mem_ctrls.readRowHitRate                 92.88                       # Row buffer hit rate for reads
system.mem_ctrls.writeRowHitRate                91.62                       # Row buffer hit rate for writes
system.mem_ctrls.readPktSize::0                     0                       # Read request sizes (log2)
system.mem_ctrls.readPktSize::1                     0                       # Read request sizes (log2)
system.mem_ctrls.readPktSize::2                     0                       # Read request sizes (log2)
system.mem_ctrls.readPktSize::3                     0                       # Read request sizes (log2)
system.mem_ctrls.readPktSize::4                     0                       # Read request sizes (log2)
system.mem_ctrls.readPktSize::5                     0                       # Read request sizes (log2)
system.mem_ctrls.readPktSize::6                 10288                       # Read request sizes (log2)
system.mem_ctrls.writePktSize::0                    0                       # Write request sizes (log2)
system.mem_ctrls.writePktSize::1                    0                       # Write request sizes (log2)
system.mem_ctrls.writePktSize::2                    0                       # Write request sizes (log2)
system.mem_ctrls.writePktSize::3                    0                       # Write request sizes (log2)
system.mem_ctrls.writePktSize::4                    0                       # Write request sizes (log2)
system.mem_ctrls.writePktSize::5                    0                       # Write request sizes (log2)
system.mem_ctrls.writePktSize::6                 1480                       # Write request sizes (log2)
system.mem_ctrls.rdQLenPdf::0                    2831                       # What read queue length does an incoming req see
system.mem_ctrls.rdQLenPdf::1                    2888                       # What read queue length does an incoming req see
system.mem_ctrls.rdQLenPdf::2                    2311                       # What read queue length does an incoming req see
system.mem_ctrls.rdQLenPdf::3                    2255                       # What read queue length does an incoming req see
system.mem_ctrls.rdQLenPdf::4                       2                       # What read queue length does an incoming req see
system.mem_ctrls.rdQLenPdf::5                       1                       # What read queue length does an incoming req see
system.mem_ctrls.rdQLenPdf::6                       0                       # What read queue length does an incoming req see
system.mem_ctrls.rdQLenPdf::7                       0                       # What read queue length does an incoming req see
system.mem_ctrls.rdQLenPdf::8                       0                       # What read queue length does an incoming req see
system.mem_ctrls.rdQLenPdf::9                       0                       # What read queue length does an incoming req see
system.mem_ctrls.rdQLenPdf::10                      0                       # What read queue length does an incoming req see
system.mem_ctrls.rdQLenPdf::11                      0                       # What read queue length does an incoming req see
system.mem_ctrls.rdQLenPdf::12                      0                       # What read queue length does an incoming req see
system.mem_ctrls.rdQLenPdf::13                      0                       # What read queue length does an incoming req see
system.mem_ctrls.rdQLenPdf::14                      0                       # What read queue length does an incoming req see
system.mem_ctrls.rdQLenPdf::15                      0                       # What read queue length does an incoming req see
system.mem_ctrls.rdQLenPdf::16                      0                       # What read queue length does an incoming req see
system.mem_ctrls.rdQLenPdf::17                      0                       # What read queue length does an incoming req see
system.mem_ctrls.rdQLenPdf::18                      0                       # What read queue length does an incoming req see
system.mem_ctrls.rdQLenPdf::19                      0                       # What read queue length does an incoming req see
system.mem_ctrls.rdQLenPdf::20                      0                       # What read queue length does an incoming req see
system.mem_ctrls.rdQLenPdf::21                      0                       # What read queue length does an incoming req see
system.mem_ctrls.rdQLenPdf::22                      0                       # What read queue length does an incoming req see
system.mem_ctrls.rdQLenPdf::23                      0                       # What read queue length does an incoming req see
system.mem_ctrls.rdQLenPdf::24                      0                       # What read queue length does an incoming req see
system.mem_ctrls.rdQLenPdf::25                      0                       # What read queue length does an incoming req see
system.mem_ctrls.rdQLenPdf::26                      0                       # What read queue length does an incoming req see
system.mem_ctrls.rdQLenPdf::27                      0                       # What read queue length does an incoming req see
system.mem_ctrls.rdQLenPdf::28                      0                       # What read queue length does an incoming req see
system.mem_ctrls.rdQLenPdf::29                      0                       # What read queue length does an incoming req see
system.mem_ctrls.rdQLenPdf::30                      0                       # What read queue length does an incoming req see
system.mem_ctrls.rdQLenPdf::31                      0                       # What read queue length does an incoming req see
system.mem_ctrls.wrQLenPdf::0                       1                       # What write queue length does an incoming req see
system.mem_ctrls.wrQLenPdf::1                       1                       # What write queue length does an incoming req see
system.mem_ctrls.wrQLenPdf::2                       1                       # What write queue length does an incoming req see
system.mem_ctrls.wrQLenPdf::3                       1                       # What write queue length does an incoming req see
system.mem_ctrls.wrQLenPdf::4                       1                       # What write queue length does an incoming req see
system.mem_ctrls.wrQLenPdf::5                       1                       # What write queue length does an incoming req see
system.mem_ctrls.wrQLenPdf::6                       1                       # What write queue length does an incoming req see
system.mem_ctrls.wrQLenPdf::7                       1                       # What write queue length does an incoming req see
system.mem_ctrls.wrQLenPdf::8                       1                       # What write queue length does an incoming req see
system.mem_ctrls.wrQLenPdf::9                       1                       # What write queue length does an incoming req see
system.mem_ctrls.wrQLenPdf::10                      1                       # What write queue length does an incoming req see
system.mem_ctrls.wrQLenPdf::11                      1                       # What write queue length does an incoming req see
system.mem_ctrls.wrQLenPdf::12                      1                       # What write queue length does an incoming req see
system.mem_ctrls.wrQLenPdf::13                      1                       # What write queue length does an incoming req see
system.mem_ctrls.wrQLenPdf::14                      1                       # What write queue length does an incoming req see
system.mem_ctrls.wrQLenPdf::15                      1                       # What write queue length does an incoming req see
system.mem_ctrls.wrQLenPdf::16                      1                       # What write queue length does an incoming req see
system.mem_ctrls.wrQLenPdf::17                      1                       # What write queue length does an incoming req see
system.mem_ctrls.wrQLenPdf::18                     51                       # What write queue length does an incoming req see
system.mem_ctrls.wrQLenPdf::19                     51                       # What write queue length does an incoming req see
system.mem_ctrls.wrQLenPdf::20                     92                       # What write queue length does an incoming req see
system.mem_ctrls.wrQLenPdf::21                     92                       # What write queue length does an incoming req see
system.mem_ctrls.wrQLenPdf::22                     92                       # What write queue length does an incoming req see
system.mem_ctrls.wrQLenPdf::23                     92                       # What write queue length does an incoming req see
system.mem_ctrls.wrQLenPdf::24                     91                       # What write queue length does an incoming req see
system.mem_ctrls.wrQLenPdf::25                     91                       # What write queue length does an incoming req see
system.mem_ctrls.wrQLenPdf::26                    130                       # What write queue length does an incoming req see
system.mem_ctrls.wrQLenPdf::27                    130                       # What write queue length does an incoming req see
system.mem_ctrls.wrQLenPdf::28                     91                       # What write queue length does an incoming req see
system.mem_ctrls.wrQLenPdf::29                     93                       # What write queue length does an incoming req see
system.mem_ctrls.wrQLenPdf::30                     93                       # What write queue length does an incoming req see
system.mem_ctrls.wrQLenPdf::31                     91                       # What write queue length does an incoming req see
system.mem_ctrls.wrQLenPdf::32                     91                       # What write queue length does an incoming req see
system.mem_ctrls.wrQLenPdf::33                     91                       # What write queue length does an incoming req see
system.mem_ctrls.wrQLenPdf::34                      0                       # What write queue length does an incoming req see
system.mem_ctrls.wrQLenPdf::35                      0                       # What write queue length does an incoming req see
system.mem_ctrls.wrQLenPdf::36                      0                       # What write queue length does an incoming req see
system.mem_ctrls.wrQLenPdf::37                      0                       # What write queue length does an incoming req see
system.mem_ctrls.wrQLenPdf::38                      0                       # What write queue length does an incoming req see
system.mem_ctrls.wrQLenPdf::39                      0                       # What write queue length does an incoming req see
system.mem_ctrls.wrQLenPdf::40                      0                       # What write queue length does an incoming req see
system.mem_ctrls.wrQLenPdf::41                      0                       # What write queue length does an incoming req see
system.mem_ctrls.wrQLenPdf::42                      0                       # What write queue length does an incoming req see
system.mem_ctrls.wrQLenPdf::43                      0                       # What write queue length does an incoming req see
system.mem_ctrls.wrQLenPdf::44                      0                       # What write queue length does an incoming req see
system.mem_ctrls.wrQLenPdf::45                      0                       # What write queue length does an incoming req see
system.mem_ctrls.wrQLenPdf::46                      0                       # What write queue length does an incoming req see
system.mem_ctrls.wrQLenPdf::47                      0                       # What write queue length does an incoming req see
system.mem_ctrls.wrQLenPdf::48                      0                       # What write queue length does an incoming req see
system.mem_ctrls.wrQLenPdf::49                      0                       # What write queue length does an incoming req see
system.mem_ctrls.wrQLenPdf::50                      0                       # What write queue length does an incoming req see
system.mem_ctrls.wrQLenPdf::51                      0                       # What write queue length does an incoming req see
system.mem_ctrls.wrQLenPdf::52                      0                       # What write queue length does an incoming req see
system.mem_ctrls.wrQLenPdf::53                      0                       # What write queue length does an incoming req see
system.mem_ctrls.wrQLenPdf::54                      0                       # What write queue length does an incoming req see
system.mem_ctrls.wrQLenPdf::55                      0                       # What write queue length does an incoming req see
system.mem_ctrls.wrQLenPdf::56                      0                       # What write queue length does an incoming req see
system.mem_ctrls.wrQLenPdf::57                      0                       # What write queue length does an incoming req see
system.mem_ctrls.wrQLenPdf::58                      0                       # What write queue length does an incoming req see
system.mem_ctrls.wrQLenPdf::59                      0                       # What write queue length does an incoming req see
system.mem_ctrls.wrQLenPdf::60                      0                       # What write queue length does an incoming req see
system.mem_ctrls.wrQLenPdf::61                      0                       # What write queue length does an incoming req see
system.mem_ctrls.wrQLenPdf::62                      0                       # What write queue length does an incoming req see
system.mem_ctrls.wrQLenPdf::63                      0                       # What write queue length does an incoming req see
system.mem_ctrls.bytesPerActivate::samples          830                       # Bytes accessed per row activation
system.mem_ctrls.bytesPerActivate::mean    903.865060                       # Bytes accessed per row activation
system.mem_ctrls.bytesPerActivate::gmean   819.468144                       # Bytes accessed per row activation
system.mem_ctrls.bytesPerActivate::stdev   269.331659                       # Bytes accessed per row activation
system.mem_ctrls.bytesPerActivate::0-127            1      0.12%      0.12% # Bytes accessed per row activation
system.mem_ctrls.bytesPerActivate::128-255           42      5.06%      5.18% # Bytes accessed per row activation
system.mem_ctrls.bytesPerActivate::256-383           32      3.86%      9.04% # Bytes accessed per row activation
system.mem_ctrls.bytesPerActivate::384-511           28      3.37%     12.41% # Bytes accessed per row activation
system.mem_ctrls.bytesPerActivate::512-639           13      1.57%     13.98% # Bytes accessed per row activation
system.mem_ctrls.bytesPerActivate::640-767           17      2.05%     16.02% # Bytes accessed per row activation
system.mem_ctrls.bytesPerActivate::768-895           16      1.93%     17.95% # Bytes accessed per row activation
system.mem_ctrls.bytesPerActivate::896-1023           11      1.33%     19.28% # Bytes accessed per row activation
system.mem_ctrls.bytesPerActivate::1024-1151          670     80.72%    100.00% # Bytes accessed per row activation
system.mem_ctrls.bytesPerActivate::total          830                       # Bytes accessed per row activation
system.mem_ctrls.rdPerTurnAround::samples           91                       # Reads before turning the bus around for writes
system.mem_ctrls.rdPerTurnAround::mean     113.010989                       # Reads before turning the bus around for writes
system.mem_ctrls.rdPerTurnAround::gmean     17.146777                       # Reads before turning the bus around for writes
system.mem_ctrls.rdPerTurnAround::stdev    925.425902                       # Reads before turning the bus around for writes
system.mem_ctrls.rdPerTurnAround::0-511            90     98.90%     98.90% # Reads before turning the bus around for writes
system.mem_ctrls.rdPerTurnAround::8704-9215            1      1.10%    100.00% # Reads before turning the bus around for writes
system.mem_ctrls.rdPerTurnAround::total            91                       # Reads before turning the bus around for writes
system.mem_ctrls.wrPerTurnAround::samples           91                       # Writes before turning the bus around for reads
system.mem_ctrls.wrPerTurnAround::mean             16                       # Writes before turning the bus around for reads
system.mem_ctrls.wrPerTurnAround::gmean     16.000000                       # Writes before turning the bus around for reads
system.mem_ctrls.wrPerTurnAround::16               91    100.00%    100.00% # Writes before turning the bus around for reads
system.mem_ctrls.wrPerTurnAround::total            91                       # Writes before turning the bus around for reads
system.mem_ctrls.bytesReadDRAM                 658432                       # Total number of bytes read from DRAM
system.mem_ctrls.bytesReadWrQ                       0                       # Total number of bytes read from write queue
system.mem_ctrls.bytesWritten                   93184                       # Total number of bytes written to DRAM
system.mem_ctrls.bytesReadSys                  658432                       # Total read bytes from the system interface side
system.mem_ctrls.bytesWrittenSys                94720                       # Total written bytes from the system interface side
system.mem_ctrls.avgRdBW                      2439.40                       # Average DRAM read bandwidth in MiByte/s
[...]
system.cpu.icache.ReadReq_miss_rate::.cpu.inst     0.016881                       # miss rate for ReadReq accesses
system.cpu.icache.ReadReq_miss_rate::total     0.016881                       # miss rate for ReadReq accesses
system.cpu.icache.ReadReq_avg_miss_latency::.cpu.inst 68250.847458                       # average ReadReq miss latency
system.cpu.icache.ReadReq_avg_miss_latency::total 68250.847458                       # average ReadReq miss latency
system.cpu.icache.ReadReq_mshr_misses::.cpu.inst          295                       # number of ReadReq MSHR misses
system.cpu.icache.ReadReq_mshr_misses::total          295                       # number of ReadReq MSHR misses
system.cpu.icache.ReadReq_mshr_miss_latency::.cpu.inst     19839000                       # number of ReadReq MSHR miss cycles
system.cpu.icache.ReadReq_mshr_miss_latency::total     19839000                       # number of ReadReq MSHR miss cycles
system.cpu.icache.ReadReq_mshr_miss_rate::.cpu.inst     0.016881                       # mshr miss rate for ReadReq accesses
system.cpu.icache.ReadReq_mshr_miss_rate::total     0.016881                       # mshr miss rate for ReadReq accesses
system.cpu.icache.ReadReq_avg_mshr_miss_latency::.cpu.inst 67250.847458                       # average ReadReq mshr miss latency
system.cpu.icache.ReadReq_avg_mshr_miss_latency::total 67250.847458                       # average ReadReq mshr miss latency
system.cpu.icache.tags.pwrStateResidencyTicks::UNDEFINED    269915500                       # Cumulative time (in ticks) in various power states
system.cpu.icache.tags.tagsinuse           127.564410                       # Cycle average of tags in use
system.cpu.icache.tags.total_refs               17475                       # Total number of references to valid blocks.
system.cpu.icache.tags.sampled_refs               295                       # Sample count of references to valid blocks.
system.cpu.icache.tags.avg_refs             59.237288                       # Average number of references to valid blocks.
system.cpu.icache.tags.warmup_cycle             92500                       # Cycle when the warmup percentage was hit.
system.cpu.icache.tags.occ_blocks::.cpu.inst   127.564410                       # Average occupied blocks per requestor
system.cpu.icache.tags.occ_percent::.cpu.inst     0.498298                       # Average percentage of cache occupancy
system.cpu.icache.tags.occ_percent::total     0.498298                       # Average percentage of cache occupancy
system.cpu.icache.tags.occ_task_id_blocks::1024          134                       # Occupied blocks per task id
system.cpu.icache.tags.age_task_id_blocks_1024::2          134                       # Occupied blocks per task id
system.cpu.icache.tags.occ_task_id_percent::1024     0.523438                       # Percentage of cache occupancy per task id
system.cpu.icache.tags.tag_accesses             17770                       # Number of tag accesses
system.cpu.icache.tags.data_accesses            17770                       # Number of data accesses
system.cpu.dtb.walker.pwrStateResidencyTicks::UNDEFINED    269915500                       # Cumulative time (in ticks) in various power states
system.cpu.dtb.stage2_mmu.stage2_tlb.walker.pwrStateResidencyTicks::UNDEFINED    269915500                       # Cumulative time (in ticks) in various power states
system.cpu.dcache.pwrStateResidencyTicks::UNDEFINED    269915500                       # Cumulative time (in ticks) in various power states
system.cpu.dcache.demand_hits::.cpu.data        41451                       # number of demand (read+write) hits
system.cpu.dcache.demand_hits::total            41451                       # number of demand (read+write) hits
system.cpu.dcache.overall_hits::.cpu.data        41474                       # number of overall hits
system.cpu.dcache.overall_hits::total           41474                       # number of overall hits
system.cpu.dcache.demand_misses::.cpu.data         4970                       # number of demand (read+write) misses
system.cpu.dcache.demand_misses::total           4970                       # number of demand (read+write) misses
system.cpu.dcache.overall_misses::.cpu.data         4980                       # number of overall misses
system.cpu.dcache.overall_misses::total          4980                       # number of overall misses
system.cpu.dcache.demand_miss_latency::.cpu.data    428020000                       # number of demand (read+write) miss cycles
system.cpu.dcache.demand_miss_latency::total    428020000                       # number of demand (read+write) miss cycles
system.cpu.dcache.overall_miss_latency::.cpu.data    428020000                       # number of overall miss cycles
system.cpu.dcache.overall_miss_latency::total    428020000                       # number of overall miss cycles
system.cpu.dcache.demand_accesses::.cpu.data        46421                       # number of demand (read+write) accesses
system.cpu.dcache.demand_accesses::total        46421                       # number of demand (read+write) accesses
system.cpu.dcache.overall_accesses::.cpu.data        46454                       # number of overall (read+write) accesses
system.cpu.dcache.overall_accesses::total        46454                       # number of overall (read+write) accesses
system.cpu.dcache.demand_miss_rate::.cpu.data     0.107064                       # miss rate for demand accesses
system.cpu.dcache.demand_miss_rate::total     0.107064                       # miss rate for demand accesses
system.cpu.dcache.overall_miss_rate::.cpu.data     0.107203                       # miss rate for overall accesses
system.cpu.dcache.overall_miss_rate::total     0.107203                       # miss rate for overall accesses
system.cpu.dcache.demand_avg_miss_latency::.cpu.data 86120.724346                       # average overall miss latency
system.cpu.dcache.demand_avg_miss_latency::total 86120.724346                       # average overall miss latency
system.cpu.dcache.overall_avg_miss_latency::.cpu.data 85947.791165                       # average overall miss latency
system.cpu.dcache.overall_avg_miss_latency::total 85947.791165                       # average overall miss latency
system.cpu.dcache.blocked_cycles::no_mshrs            0                       # number of cycles access was blocked
system.cpu.dcache.blocked_cycles::no_targets            0                       # number of cycles access was blocked
system.cpu.dcache.blocked::no_mshrs                 0                       # number of cycles access was blocked
system.cpu.dcache.blocked::no_targets               0                       # number of cycles access was blocked
system.cpu.dcache.avg_blocked_cycles::no_mshrs          nan                       # average number of cycles each access was blocked
system.cpu.dcache.avg_blocked_cycles::no_targets          nan                       # average number of cycles each access was blocked
system.cpu.dcache.writebacks::.writebacks         4807                       # number of writebacks
system.cpu.dcache.writebacks::total              4807                       # number of writebacks
system.cpu.dcache.demand_mshr_hits::.cpu.data           31                       # number of demand (read+write) MSHR hits
system.cpu.dcache.demand_mshr_hits::total           31                       # number of demand (read+write) MSHR hits
system.cpu.dcache.overall_mshr_hits::.cpu.data           31                       # number of overall MSHR hits
system.cpu.dcache.overall_mshr_hits::total           31                       # number of overall MSHR hits
system.cpu.dcache.demand_mshr_misses::.cpu.data         4939                       # number of demand (read+write) MSHR misses
system.cpu.dcache.demand_mshr_misses::total         4939                       # number of demand (read+write) MSHR misses
system.cpu.dcache.overall_mshr_misses::.cpu.data         4945                       # number of overall MSHR misses
system.cpu.dcache.overall_mshr_misses::total         4945                       # number of overall MSHR misses
system.cpu.dcache.demand_mshr_miss_latency::.cpu.data    420558500                       # number of demand (read+write) MSHR miss cycles
system.cpu.dcache.demand_mshr_miss_latency::total    420558500                       # number of demand (read+write) MSHR miss cycles
system.cpu.dcache.overall_mshr_miss_latency::.cpu.data    421084000                       # number of overall MSHR miss cycles
system.cpu.dcache.overall_mshr_miss_latency::total    421084000                       # number of overall MSHR miss cycles
system.cpu.dcache.demand_mshr_miss_rate::.cpu.data     0.106396                       # mshr miss rate for demand accesses
system.cpu.dcache.demand_mshr_miss_rate::total     0.106396                       # mshr miss rate for demand accesses
system.cpu.dcache.overall_mshr_miss_rate::.cpu.data     0.106449                       # mshr miss rate for overall accesses
system.cpu.dcache.overall_mshr_miss_rate::total     0.106449                       # mshr miss rate for overall accesses
system.cpu.dcache.demand_avg_mshr_miss_latency::.cpu.data 85150.536546                       # average overall mshr miss latency
system.cpu.dcache.demand_avg_mshr_miss_latency::total 85150.536546                       # average overall mshr miss latency
system.cpu.dcache.overall_avg_mshr_miss_latency::.cpu.data 85153.488372                       # average overall mshr miss latency
system.cpu.dcache.overall_avg_mshr_miss_latency::total 85153.488372                       # average overall mshr miss latency
system.cpu.dcache.replacements                   4817                       # number of replacements
system.cpu.dcache.ReadReq_hits::.cpu.data        35248                       # number of ReadReq hits
system.cpu.dcache.ReadReq_hits::total           35248                       # number of ReadReq hits
system.cpu.dcache.ReadReq_misses::.cpu.data           79                       # number of ReadReq misses
system.cpu.dcache.ReadReq_misses::total            79                       # number of ReadReq misses
system.cpu.dcache.ReadReq_miss_latency::.cpu.data      5682500                       # number of ReadReq miss cycles
system.cpu.dcache.ReadReq_miss_latency::total      5682500                       # number of ReadReq miss cycles
system.cpu.dcache.ReadReq_accesses::.cpu.data        35327                       # number of ReadReq accesses(hits+misses)
system.cpu.dcache.ReadReq_accesses::total        35327                       # number of ReadReq accesses(hits+misses)
system.cpu.dcache.ReadReq_miss_rate::.cpu.data     0.002236                       # miss rate for ReadReq accesses
system.cpu.dcache.ReadReq_miss_rate::total     0.002236                       # miss rate for ReadReq accesses
system.cpu.dcache.ReadReq_avg_miss_latency::.cpu.data 71930.379747                       # average ReadReq miss latency
system.cpu.dcache.ReadReq_avg_miss_latency::total 71930.379747                       # average ReadReq miss latency
system.cpu.dcache.ReadReq_mshr_hits::.cpu.data            8                       # number of ReadReq MSHR hits
system.cpu.dcache.ReadReq_mshr_hits::total            8                       # number of ReadReq MSHR hits
system.cpu.dcache.ReadReq_mshr_misses::.cpu.data           71                       # number of ReadReq MSHR misses
system.cpu.dcache.ReadReq_mshr_misses::total           71                       # number of ReadReq MSHR misses
system.cpu.dcache.ReadReq_mshr_miss_latency::.cpu.data      4928500                       # number of ReadReq MSHR miss cycles
system.cpu.dcache.ReadReq_mshr_miss_latency::total      4928500                       # number of ReadReq MSHR miss cycles
system.cpu.dcache.ReadReq_mshr_miss_rate::.cpu.data     0.002010                       # mshr miss rate for ReadReq accesses
system.cpu.dcache.ReadReq_mshr_miss_rate::total     0.002010                       # mshr miss rate for ReadReq accesses
system.cpu.dcache.ReadReq_avg_mshr_miss_latency::.cpu.data 69415.492958                       # average ReadReq mshr miss latency
system.cpu.dcache.ReadReq_avg_mshr_miss_latency::total 69415.492958                       # average ReadReq mshr miss latency
system.cpu.dcache.WriteReq_hits::.cpu.data         6203                       # number of WriteReq hits
system.cpu.dcache.WriteReq_hits::total           6203                       # number of WriteReq hits
system.cpu.dcache.WriteReq_misses::.cpu.data         4891                       # number of WriteReq misses
system.cpu.dcache.WriteReq_misses::total         4891                       # number of WriteReq misses
system.cpu.dcache.WriteReq_miss_latency::.cpu.data    422337500                       # number of WriteReq miss cycles
system.cpu.dcache.WriteReq_miss_latency::total    422337500                       # number of WriteReq miss cycles
system.cpu.dcache.WriteReq_accesses::.cpu.data        11094                       # number of WriteReq accesses(hits+misses)
system.cpu.dcache.WriteReq_accesses::total        11094                       # number of WriteReq accesses(hits+misses)
system.cpu.dcache.WriteReq_miss_rate::.cpu.data     0.440869                       # miss rate for WriteReq accesses
system.cpu.dcache.WriteReq_miss_rate::total     0.440869                       # miss rate for WriteReq accesses
system.cpu.dcache.WriteReq_avg_miss_latency::.cpu.data 86349.928440                       # average WriteReq miss latency
system.cpu.dcache.WriteReq_avg_miss_latency::total 86349.928440                       # average WriteReq miss latency
system.cpu.dcache.WriteReq_mshr_hits::.cpu.data           23                       # number of WriteReq MSHR hits
system.cpu.dcache.WriteReq_mshr_hits::total           23                       # number of WriteReq MSHR hits
system.cpu.dcache.WriteReq_mshr_misses::.cpu.data         4868                       # number of WriteReq MSHR misses
system.cpu.dcache.WriteReq_mshr_misses::total         4868                       # number of WriteReq MSHR misses
system.cpu.dcache.WriteReq_mshr_miss_latency::.cpu.data    415630000                       # number of WriteReq MSHR miss cycles
system.cpu.dcache.WriteReq_mshr_miss_latency::total    415630000                       # number of WriteReq MSHR miss cycles
system.cpu.dcache.WriteReq_mshr_miss_rate::.cpu.data     0.438796                       # mshr miss rate for WriteReq accesses
system.cpu.dcache.WriteReq_mshr_miss_rate::total     0.438796                       # mshr miss rate for WriteReq accesses
system.cpu.dcache.WriteReq_avg_mshr_miss_latency::.cpu.data 85380.032868                       # average WriteReq mshr miss latency
system.cpu.dcache.WriteReq_avg_mshr_miss_latency::total 85380.032868                       # average WriteReq mshr miss latency
system.cpu.dcache.SoftPFReq_hits::.cpu.data           23                       # number of SoftPFReq hits
system.cpu.dcache.SoftPFReq_hits::total            23                       # number of SoftPFReq hits
system.cpu.dcache.SoftPFReq_misses::.cpu.data           10                       # number of SoftPFReq misses
system.cpu.dcache.SoftPFReq_misses::total           10                       # number of SoftPFReq misses
system.cpu.dcache.SoftPFReq_accesses::.cpu.data           33                       # number of SoftPFReq accesses(hits+misses)
system.cpu.dcache.SoftPFReq_accesses::total           33                       # number of SoftPFReq accesses(hits+misses)
system.cpu.dcache.SoftPFReq_miss_rate::.cpu.data     0.303030                       # miss rate for SoftPFReq accesses
system.cpu.dcache.SoftPFReq_miss_rate::total     0.303030                       # miss rate for SoftPFReq accesses
system.cpu.dcache.SoftPFReq_mshr_misses::.cpu.data            6                       # number of SoftPFReq MSHR misses
system.cpu.dcache.SoftPFReq_mshr_misses::total            6                       # number of SoftPFReq MSHR misses
system.cpu.dcache.SoftPFReq_mshr_miss_latency::.cpu.data       525500                       # number of SoftPFReq MSHR miss cycles
system.cpu.dcache.SoftPFReq_mshr_miss_latency::total       525500                       # number of SoftPFReq MSHR miss cycles
system.cpu.dcache.SoftPFReq_mshr_miss_rate::.cpu.data     0.181818                       # mshr miss rate for SoftPFReq accesses
system.cpu.dcache.SoftPFReq_mshr_miss_rate::total     0.181818                       # mshr miss rate for SoftPFReq accesses
system.cpu.dcache.SoftPFReq_avg_mshr_miss_latency::.cpu.data 87583.333333                       # average SoftPFReq mshr miss latency
system.cpu.dcache.SoftPFReq_avg_mshr_miss_latency::total 87583.333333                       # average SoftPFReq mshr miss latency
system.cpu.dcache.LoadLockedReq_hits::.cpu.data           10                       # number of LoadLockedReq hits
system.cpu.dcache.LoadLockedReq_hits::total           10                       # number of LoadLockedReq hits
system.cpu.dcache.LoadLockedReq_accesses::.cpu.data           10                       # number of LoadLockedReq accesses(hits+misses)
system.cpu.dcache.LoadLockedReq_accesses::total           10                       # number of LoadLockedReq accesses(hits+misses)
system.cpu.dcache.StoreCondReq_hits::.cpu.data           10                       # number of StoreCondReq hits
system.cpu.dcache.StoreCondReq_hits::total           10                       # number of StoreCondReq hits
system.cpu.dcache.StoreCondReq_accesses::.cpu.data           10                       # number of StoreCondReq accesses(hits+misses)
system.cpu.dcache.StoreCondReq_accesses::total           10                       # number of StoreCondReq accesses(hits+misses)
system.cpu.dcache.tags.pwrStateResidencyTicks::UNDEFINED    269915500                       # Cumulative time (in ticks) in various power states
system.cpu.dcache.tags.tagsinuse           119.733556                       # Cycle average of tags in use
system.cpu.dcache.tags.total_refs               46438                       # Total number of references to valid blocks.
system.cpu.dcache.tags.sampled_refs              4944                       # Sample count of references to valid blocks.
system.cpu.dcache.tags.avg_refs              9.392799                       # Average number of references to valid blocks.
system.cpu.dcache.tags.warmup_cycle            186500                       # Cycle when the warmup percentage was hit.
system.cpu.dcache.tags.occ_blocks::.cpu.data   119.733556                       # Average occupied blocks per requestor
system.cpu.dcache.tags.occ_percent::.cpu.data     0.467709                       # Average percentage of cache occupancy
system.cpu.dcache.tags.occ_percent::total     0.467709                       # Average percentage of cache occupancy
system.cpu.dcache.tags.occ_task_id_blocks::1024          127                       # Occupied blocks per task id
system.cpu.dcache.tags.age_task_id_blocks_1024::0           32                       # Occupied blocks per task id
system.cpu.dcache.tags.age_task_id_blocks_1024::2           95                       # Occupied blocks per task id
system.cpu.dcache.tags.occ_task_id_percent::1024     0.496094                       # Percentage of cache occupancy per task id
system.cpu.dcache.tags.tag_accesses            190840                       # Number of tag accesses
system.cpu.dcache.tags.data_accesses           190840                       # Number of data accesses
system.cpu.itb.walker.pwrStateResidencyTicks::UNDEFINED    269915500                       # Cumulative time (in ticks) in various power states
system.cpu.itb.stage2_mmu.stage2_tlb.walker.pwrStateResidencyTicks::UNDEFINED    269915500                       # Cumulative time (in ticks) in various power states

---------- End Simulation Statistics   ----------
