
---------- Begin Simulation Statistics ----------
final_tick                                19333944500                       # Number of ticks from beginning of simulation (restored from checkpoints and never reset)
host_inst_rate                                 256688                       # Simulator instruction rate (inst/s)
host_mem_usage                                 699100                       # Number of bytes of host memory used
host_op_rate                                   257414                       # Simulator op (including micro ops) rate (op/s)
host_seconds                                    38.96                       # Real time elapsed on the host
host_tick_rate                              496277684                       # Simulator tick rate (ticks/s)
sim_freq                                 1000000000000                       # Frequency of simulated ticks
sim_insts                                    10000000                       # Number of instructions simulated
sim_ops                                      10028308                       # Number of ops (including micro ops) simulated
sim_seconds                                  0.019334                       # Number of seconds simulated
sim_ticks                                 19333944500                       # Number of ticks simulated
system.cpu.branchPred.BTBCorrect                    0                       # Number of correct BTB predictions (this stat may not work properly.
system.cpu.branchPred.BTBHitPct             98.890572                       # BTB Hit Percentage
system.cpu.branchPred.BTBHits                  300301                       # Number of BTB hits
system.cpu.branchPred.BTBLookups               303670                       # Number of BTB lookups
system.cpu.branchPred.RASInCorrect                  5                       # Number of incorrect RAS predictions.
system.cpu.branchPred.condIncorrect              7162                       # Number of conditional branches incorrect
system.cpu.branchPred.condPredicted            603721                       # Number of conditional branches predicted
system.cpu.branchPred.indirectHits                128                       # Number of indirect target hits.
system.cpu.branchPred.indirectLookups             381                       # Number of indirect predictor lookups.
system.cpu.branchPred.indirectMisses              253                       # Number of indirect misses.
system.cpu.branchPred.lookups                  716518                       # Number of BP lookups
system.cpu.branchPred.usedRAS                    6929                       # Number of times the RAS was used to get a target.
system.cpu.branchPredindirectMispredicted          171                       # Number of mispredicted indirect branches.
system.cpu.committedInsts                    10000000                       # Number of instructions committed
system.cpu.committedOps                      10028308                       # Number of ops (including micro ops) committed
system.cpu.cpi                               3.866789                       # CPI: cycles per instruction
system.cpu.discardedOps                         15340                       # Number of ops (including micro ops) which were discarded before commit
system.cpu.dtb.accesses                             0                       # DTB accesses
system.cpu.dtb.align_faults                         0                       # Number of TLB faults due to alignment restrictions
system.cpu.dtb.domain_faults                        0                       # Number of TLB faults due to domain restrictions
system.cpu.dtb.flush_entries                        0                       # Number of entries that have been flushed from TLB
system.cpu.dtb.flush_tlb                            0                       # Number of times complete TLB was flushed
system.cpu.dtb.flush_tlb_asid                       0                       # Number of times TLB was flushed by ASID
system.cpu.dtb.flush_tlb_mva                        0                       # Number of times TLB was flushed by MVA
system.cpu.dtb.flush_tlb_mva_asid                   0                       # Number of times TLB was flushed by MVA & ASID
system.cpu.dtb.hits                                 0                       # DTB hits
system.cpu.dtb.inst_accesses                        0                       # ITB inst accesses
system.cpu.dtb.inst_hits                            0                       # ITB inst hits
system.cpu.dtb.inst_misses                          0                       # ITB inst misses
system.cpu.dtb.misses                               0                       # DTB misses
system.cpu.dtb.perms_faults                         0                       # Number of TLB faults due to permissions restrictions
system.cpu.dtb.prefetch_faults                      0                       # Number of TLB faults due to prefetch
system.cpu.dtb.read_accesses                        0                       # DTB read accesses
system.cpu.dtb.read_hits                            0                       # DTB read hits
system.cpu.dtb.read_misses                          0                       # DTB read misses
system.cpu.dtb.stage2_mmu.stage2_tlb.accesses            0                       # DTB accesses
system.cpu.dtb.stage2_mmu.stage2_tlb.align_faults            0                       # Number of TLB faults due to alignment restrictions
system.cpu.dtb.stage2_mmu.stage2_tlb.domain_faults            0                       # Number of TLB faults due to domain restrictions
system.cpu.dtb.stage2_mmu.stage2_tlb.flush_entries            0                       # Number of entries that have been flushed from TLB
system.cpu.dtb.stage2_mmu.stage2_tlb.flush_tlb            0                       # Number of times complete TLB was flushed
system.cpu.dtb.stage2_mmu.stage2_tlb.flush_tlb_asid            0                       # Number of times TLB was flushed by ASID
system.cpu.dtb.stage2_mmu.stage2_tlb.flush_tlb_mva            0                       # Number of times TLB was flushed by MVA
system.cpu.dtb.stage2_mmu.stage2_tlb.flush_tlb_mva_asid            0                       # Number of times TLB was flushed by MVA & ASID
system.cpu.dtb.stage2_mmu.stage2_tlb.hits            0                       # DTB hits
system.cpu.dtb.stage2_mmu.stage2_tlb.inst_accesses            0                       # ITB inst accesses
system.cpu.dtb.stage2_mmu.stage2_tlb.inst_hits            0                       # ITB inst hits
system.cpu.dtb.stage2_mmu.stage2_tlb.inst_misses            0                       # ITB inst misses
system.cpu.dtb.stage2_mmu.stage2_tlb.misses            0                       # DTB misses
system.cpu.dtb.stage2_mmu.stage2_tlb.perms_faults            0                       # Number of TLB faults due to permissions restrictions
system.cpu.dtb.stage2_mmu.stage2_tlb.prefetch_faults            0                       # Number of TLB faults due to prefetch
system.cpu.dtb.stage2_mmu.stage2_tlb.read_accesses            0                       # DTB read accesses
system.cpu.dtb.stage2_mmu.stage2_tlb.read_hits            0                       # DTB read hits
system.cpu.dtb.stage2_mmu.stage2_tlb.read_misses            0                       # DTB read misses
system.cpu.dtb.stage2_mmu.stage2_tlb.walker.walkRequestOrigin_Requested::Data            0                       # Table walker requests started/completed, data/inst
system.cpu.dtb.stage2_mmu.stage2_tlb.walker.walkRequestOrigin_Requested::Inst            0                       # Table walker requests started/completed, data/inst
system.cpu.dtb.stage2_mmu.stage2_tlb.walker.walkRequestOrigin_Requested::total            0                       # Table walker requests started/completed, data/inst
system.cpu.dtb.stage2_mmu.stage2_tlb.walker.walkRequestOrigin_Completed::Data            0                       # Table walker requests started/completed, data/inst
system.cpu.dtb.stage2_mmu.stage2_tlb.walker.walkRequestOrigin_Completed::Inst            0                       # Table walker requests started/completed, data/inst
system.cpu.dtb.stage2_mmu.stage2_tlb.walker.walkRequestOrigin_Completed::total            0                       # Table walker requests started/completed, data/inst
system.cpu.dtb.stage2_mmu.stage2_tlb.walker.walkRequestOrigin::total            0                       # Table walker requests started/completed, data/inst
system.cpu.dtb.stage2_mmu.stage2_tlb.walker.walks            0                       # Table walker walks requested
system.cpu.dtb.stage2_mmu.stage2_tlb.write_accesses            0                       # DTB write accesses
system.cpu.dtb.stage2_mmu.stage2_tlb.write_hits            0                       # DTB write hits
system.cpu.dtb.stage2_mmu.stage2_tlb.write_misses            0                       # DTB write misses
system.cpu.dtb.walker.walkRequestOrigin_Requested::Data            0                       # Table walker requests started/completed, data/inst
system.cpu.dtb.walker.walkRequestOrigin_Requested::Inst            0                       # Table walker requests started/completed, data/inst
system.cpu.dtb.walker.walkRequestOrigin_Requested::total            0                       # Table walker requests started/completed, data/inst
system.cpu.dtb.walker.walkRequestOrigin_Completed::Data            0                       # Table walker requests started/completed, data/inst
system.cpu.dtb.walker.walkRequestOrigin_Completed::Inst            0                       # Table walker requests started/completed, data/inst
system.cpu.dtb.walker.walkRequestOrigin_Completed::total            0                       # Table walker requests started/completed, data/inst
system.cpu.dtb.walker.walkRequestOrigin::total            0                       # Table walker requests started/completed, data/inst
system.cpu.dtb.walker.walks                         0                       # Table walker walks requested
system.cpu.dtb.write_accesses                       0                       # DTB write accesses
system.cpu.dtb.write_hits                           0                       # DTB write hits
system.cpu.dtb.write_misses                         0                       # DTB write misses
system.cpu.fetch2.amo_instructions                  0                       # Number of memory atomic instructions successfully decoded
system.cpu.fetch2.fp_instructions                   0                       # Number of floating point instructions successfully decoded
system.cpu.fetch2.int_instructions            2168630                       # Number of integer instructions successfully decoded
system.cpu.fetch2.load_instructions           5800744                       # Number of memory load instructions successfully decoded
system.cpu.fetch2.store_instructions          1454234                       # Number of memory store instructions successfully decoded
system.cpu.fetch2.vec_instructions                  0                       # Number of SIMD instructions successfully decoded
system.cpu.idleCycles                        23931982                       # Total number of cycles that the object has spent stopped
system.cpu.ipc                               0.258613                       # IPC: instructions per cycle
system.cpu.itb.accesses                             0                       # DTB accesses
system.cpu.itb.align_faults                         0                       # Number of TLB faults due to alignment restrictions
system.cpu.itb.domain_faults                        0                       # Number of TLB faults due to domain restrictions
system.cpu.itb.flush_entries                        0                       # Number of entries that have been flushed from TLB
system.cpu.itb.flush_tlb                            0                       # Number of times complete TLB was flushed
system.cpu.itb.flush_tlb_asid                       0                       # Number of times TLB was flushed by ASID
system.cpu.itb.flush_tlb_mva                        0                       # Number of times TLB was flushed by MVA
system.cpu.itb.flush_tlb_mva_asid                   0                       # Number of times TLB was flushed by MVA & ASID
system.cpu.itb.hits                                 0                       # DTB hits
system.cpu.itb.inst_accesses                        0                       # ITB inst accesses
system.cpu.itb.inst_hits                            0                       # ITB inst hits
system.cpu.itb.inst_misses                          0                       # ITB inst misses
system.cpu.itb.misses                               0                       # DTB misses
system.cpu.itb.perms_faults                         0                       # Number of TLB faults due to permissions restrictions
system.cpu.itb.prefetch_faults                      0                       # Number of TLB faults due to prefetch
system.cpu.itb.read_accesses                        0                       # DTB read accesses
system.cpu.itb.read_hits                            0                       # DTB read hits
system.cpu.itb.read_misses                          0                       # DTB read misses
system.cpu.itb.stage2_mmu.stage2_tlb.accesses            0                       # DTB accesses
system.cpu.itb.stage2_mmu.stage2_tlb.align_faults            0                       # Number of TLB faults due to alignment restrictions
system.cpu.itb.stage2_mmu.stage2_tlb.domain_faults            0                       # Number of TLB faults due to domain restrictions
system.cpu.itb.stage2_mmu.stage2_tlb.flush_entries            0                       # Number of entries that have been flushed from TLB
system.cpu.itb.stage2_mmu.stage2_tlb.flush_tlb            0                       # Number of times complete TLB was flushed
system.cpu.itb.stage2_mmu.stage2_tlb.flush_tlb_asid            0                       # Number of times TLB was flushed by ASID
system.cpu.itb.stage2_mmu.stage2_tlb.flush_tlb_mva            0                       # Number of times TLB was flushed by MVA
system.cpu.itb.stage2_mmu.stage2_tlb.flush_tlb_mva_asid            0                       # Number of times TLB was flushed by MVA & ASID
system.cpu.itb.stage2_mmu.stage2_tlb.hits            0                       # DTB hits
system.cpu.itb.stage2_mmu.stage2_tlb.inst_accesses            0                       # ITB inst accesses
system.cpu.itb.stage2_mmu.stage2_tlb.inst_hits            0                       # ITB inst hits
system.cpu.itb.stage2_mmu.stage2_tlb.inst_misses            0                       # ITB inst misses
system.cpu.itb.stage2_mmu.stage2_tlb.misses            0                       # DTB misses
system.cpu.itb.stage2_mmu.stage2_tlb.perms_faults            0                       # Number of TLB faults due to permissions restrictions
system.cpu.itb.stage2_mmu.stage2_tlb.prefetch_faults            0                       # Number of TLB faults due to prefetch
system.cpu.itb.stage2_mmu.stage2_tlb.read_accesses            0                       # DTB read accesses
system.cpu.itb.stage2_mmu.stage2_tlb.read_hits            0                       # DTB read hits
system.cpu.itb.stage2_mmu.stage2_tlb.read_misses            0                       # DTB read misses
system.cpu.itb.stage2_mmu.stage2_tlb.walker.walkRequestOrigin_Requested::Data            0                       # Table walker requests started/completed, data/inst
system.cpu.itb.stage2_mmu.stage2_tlb.walker.walkRequestOrigin_Requested::Inst            0                       # Table walker requests started/completed, data/inst
system.cpu.itb.stage2_mmu.stage2_tlb.walker.walkRequestOrigin_Requested::total            0                       # Table walker requests started/completed, data/inst
system.cpu.itb.stage2_mmu.stage2_tlb.walker.walkRequestOrigin_Completed::Data            0                       # Table walker requests started/completed, data/inst
system.cpu.itb.stage2_mmu.stage2_tlb.walker.walkRequestOrigin_Completed::Inst            0                       # Table walker requests started/completed, data/inst
system.cpu.itb.stage2_mmu.stage2_tlb.walker.walkRequestOrigin_Completed::total            0                       # Table walker requests started/completed, data/inst
system.cpu.itb.stage2_mmu.stage2_tlb.walker.walkRequestOrigin::total            0                       # Table walker requests started/completed, data/inst
system.cpu.itb.stage2_mmu.stage2_tlb.walker.walks            0                       # Table walker walks requested
system.cpu.itb.stage2_mmu.stage2_tlb.write_accesses            0                       # DTB write accesses
system.cpu.itb.stage2_mmu.stage2_tlb.write_hits            0                       # DTB write hits
system.cpu.itb.stage2_mmu.stage2_tlb.write_misses            0                       # DTB write misses
system.cpu.itb.walker.walkRequestOrigin_Requested::Data            0                       # Table walker requests started/completed, data/inst
system.cpu.itb.walker.walkRequestOrigin_Requested::Inst            0                       # Table walker requests started/completed, data/inst
system.cpu.itb.walker.walkRequestOrigin_Requested::total            0                       # Table walker requests started/completed, data/inst
system.cpu.itb.walker.walkRequestOrigin_Completed::Data            0                       # Table walker requests started/completed, data/inst
system.cpu.itb.walker.walkRequestOrigin_Completed::Inst            0                       # Table walker requests started/completed, data/inst
system.cpu.itb.walker.walkRequestOrigin_Completed::total            0                       # Table walker requests started/completed, data/inst
system.cpu.itb.walker.walkRequestOrigin::total            0                       # Table walker requests started/completed, data/inst
system.cpu.itb.walker.walks                         0                       # Table walker walks requested
system.cpu.itb.write_accesses                       0                       # DTB write accesses
system.cpu.itb.write_hits                           0                       # DTB write hits
system.cpu.itb.write_misses                         0                       # DTB write misses
system.cpu.numCycles                         38667889                       # number of cpu cycles simulated
system.cpu.numFetchSuspends                         0                       # Number of times Execute suspended instruction fetching
system.cpu.numWorkItemsCompleted                    0                       # number of work items this cpu completed
system.cpu.numWorkItemsStarted                      0                       # number of work items this cpu started
system.cpu.op_class_0::No_OpClass                   0      0.00%      0.00% # Class of committed instruction
system.cpu.op_class_0::IntAlu                 2830128     28.22%     28.22% # Class of committed instruction
system.cpu.op_class_0::IntMult                  20549      0.20%     28.43% # Class of committed instruction
system.cpu.op_class_0::IntDiv                       0      0.00%     28.43% # Class of committed instruction
system.cpu.op_class_0::FloatAdd                     0      0.00%     28.43% # Class of committed instruction
system.cpu.op_class_0::FloatCmp                     0      0.00%     28.43% # Class of committed instruction
system.cpu.op_class_0::FloatCvt                     0      0.00%     28.43% # Class of committed instruction
system.cpu.op_class_0::FloatMult                    0      0.00%     28.43% # Class of committed instruction
system.cpu.op_class_0::FloatMultAcc                 0      0.00%     28.43% # Class of committed instruction
system.cpu.op_class_0::FloatDiv                     0      0.00%     28.43% # Class of committed instruction
system.cpu.op_class_0::FloatMisc                    0      0.00%     28.43% # Class of committed instruction
system.cpu.op_class_0::FloatSqrt                    0      0.00%     28.43% # Class of committed instruction
system.cpu.op_class_0::SimdAdd                      0      0.00%     28.43% # Class of committed instruction
system.cpu.op_class_0::SimdAddAcc                   0      0.00%     28.43% # Class of committed instruction
system.cpu.op_class_0::SimdAlu                      0      0.00%     28.43% # Class of committed instruction
system.cpu.op_class_0::SimdCmp                      0      0.00%     28.43% # Class of committed instruction
system.cpu.op_class_0::SimdCvt                      0      0.00%     28.43% # Class of committed instruction
system.cpu.op_class_0::SimdMisc                     0      0.00%     28.43% # Class of committed instruction
system.cpu.op_class_0::SimdMult                     0      0.00%     28.43% # Class of committed instruction
system.cpu.op_class_0::SimdMultAcc                  0      0.00%     28.43% # Class of committed instruction
system.cpu.op_class_0::SimdShift                    0      0.00%     28.43% # Class of committed instruction
system.cpu.op_class_0::SimdShiftAcc                 0      0.00%     28.43% # Class of committed instruction
system.cpu.op_class_0::SimdDiv                      0      0.00%     28.43% # Class of committed instruction
system.cpu.op_class_0::SimdSqrt                     0      0.00%     28.43% # Class of committed instruction
system.cpu.op_class_0::SimdFloatAdd                 0      0.00%     28.43% # Class of committed instruction
system.cpu.op_class_0::SimdFloatAlu                 0      0.00%     28.43% # Class of committed instruction
system.cpu.op_class_0::SimdFloatCmp                 0      0.00%     28.43% # Class of committed instruction
system.cpu.op_class_0::SimdFloatCvt                 0      0.00%     28.43% # Class of committed instruction
system.cpu.op_class_0::SimdFloatDiv                 0      0.00%     28.43% # Class of committed instruction
system.cpu.op_class_0::SimdFloatMisc               18      0.00%     28.43% # Class of committed instruction
system.cpu.op_class_0::SimdFloatMult                0      0.00%     28.43% # Class of committed instruction
system.cpu.op_class_0::SimdFloatMultAcc             0      0.00%     28.43% # Class of committed instruction
system.cpu.op_class_0::SimdFloatSqrt                0      0.00%     28.43% # Class of committed instruction
system.cpu.op_class_0::SimdReduceAdd                0      0.00%     28.43% # Class of committed instruction
system.cpu.op_class_0::SimdReduceAlu                0      0.00%     28.43% # Class of committed instruction
system.cpu.op_class_0::SimdReduceCmp                0      0.00%     28.43% # Class of committed instruction
system.cpu.op_class_0::SimdFloatReduceAdd            0      0.00%     28.43% # Class of committed instruction
system.cpu.op_class_0::SimdFloatReduceCmp            0      0.00%     28.43% # Class of committed instruction
system.cpu.op_class_0::SimdAes                      0      0.00%     28.43% # Class of committed instruction
system.cpu.op_class_0::SimdAesMix                   0      0.00%     28.43% # Class of committed instruction
system.cpu.op_class_0::SimdSha1Hash                 0      0.00%     28.43% # Class of committed instruction
system.cpu.op_class_0::SimdSha1Hash2                0      0.00%     28.43% # Class of committed instruction
system.cpu.op_class_0::SimdSha256Hash               0      0.00%     28.43% # Class of committed instruction
system.cpu.op_class_0::SimdSha256Hash2              0      0.00%     28.43% # Class of committed instruction
system.cpu.op_class_0::SimdShaSigma2                0      0.00%     28.43% # Class of committed instruction
system.cpu.op_class_0::SimdShaSigma3                0      0.00%     28.43% # Class of committed instruction
system.cpu.op_class_0::SimdPredAlu                  0      0.00%     28.43% # Class of committed instruction
system.cpu.op_class_0::MemRead                5721911     57.06%     85.48% # Class of committed instruction
system.cpu.op_class_0::MemWrite               1455702     14.52%    100.00% # Class of committed instruction
system.cpu.op_class_0::FloatMemRead                 0      0.00%    100.00% # Class of committed instruction
system.cpu.op_class_0::FloatMemWrite                0      0.00%    100.00% # Class of committed instruction
system.cpu.op_class_0::IprAccess                    0      0.00%    100.00% # Class of committed instruction
system.cpu.op_class_0::InstPrefetch                 0      0.00%    100.00% # Class of committed instruction
system.cpu.op_class_0::total                 10028308                       # Class of committed instruction
system.cpu.tickCycles                        14735907                       # Number of cycles that the object actually ticked
system.cpu.workload.numSyscalls                    84                       # Number of system calls
system.membus.snoop_filter.hit_multi_requests            0                       # Number of requests hitting in the snoop filter with multiple (>1) holders of the requested data.
system.membus.snoop_filter.hit_multi_snoops            0                       # Number of snoops hitting in the snoop filter with multiple (>1) holders of the requested data.
system.membus.snoop_filter.hit_single_requests       182297                       # Number of requests hitting in the snoop filter with a single holder of the requested data.
system.membus.snoop_filter.hit_single_snoops            0                       # Number of snoops hitting in the snoop filter with a single holder of the requested data.
system.membus.snoop_filter.tot_requests        381577                       # Total number of requests made to the snoop filter.
system.membus.snoop_filter.tot_snoops               0                       # Total number of snoops made to the snoop filter.
system.tol2bus.snoop_filter.hit_multi_requests          220                       # Number of requests hitting in the snoop filter with multiple (>1) holders of the requested data.
system.tol2bus.snoop_filter.hit_multi_snoops           47                       # Number of snoops hitting in the snoop filter with multiple (>1) holders of the requested data.
system.tol2bus.snoop_filter.hit_single_requests       201620                       # Number of requests hitting in the snoop filter with a single holder of the requested data.
system.tol2bus.snoop_filter.hit_single_snoops         7327                       # Number of snoops hitting in the snoop filter with a single holder of the requested data.
system.tol2bus.snoop_filter.tot_requests       404923                       # Total number of requests made to the snoop filter.
system.tol2bus.snoop_filter.tot_snoops           7374                       # Total number of snoops made to the snoop filter.
system.membus.pwrStateResidencyTicks::UNDEFINED  19333944500                       # Cumulative time (in ticks) in various power states
system.membus.trans_dist::ReadResp              89607                       # Transaction distribution
system.membus.trans_dist::WritebackDirty       103793                       # Transaction distribution
system.membus.trans_dist::CleanEvict            78452                       # Transaction distribution
system.membus.trans_dist::ReadExReq            109725                       # Transaction distribution
system.membus.trans_dist::ReadExResp           109725                       # Transaction distribution
system.membus.trans_dist::ReadSharedReq         89607                       # Transaction distribution
system.membus.pkt_count_system.l2.mem_side::system.mem_ctrls.port       580909                       # Packet count per connected master and slave (bytes)
system.membus.pkt_count::total                 580909                       # Packet count per connected master and slave (bytes)
system.membus.pkt_size_system.l2.mem_side::system.mem_ctrls.port      9700000                       # Cumulative packet size per connected master and slave (bytes)
system.membus.pkt_size::total                 9700000                       # Cumulative packet size per connected master and slave (bytes)
system.membus.snoops                                0                       # Total snoops (count)
system.membus.snoopTraffic                          0                       # Total snoop traffic (bytes)
system.membus.snoop_fanout::samples            199332                       # Request fanout histogram
system.membus.snoop_fanout::mean                    0                       # Request fanout histogram
system.membus.snoop_fanout::stdev                   0                       # Request fanout histogram
system.membus.snoop_fanout::underflows              0      0.00%      0.00% # Request fanout histogram
system.membus.snoop_fanout::0                  199332    100.00%    100.00% # Request fanout histogram
system.membus.snoop_fanout::1                       0      0.00%    100.00% # Request fanout histogram
system.membus.snoop_fanout::overflows               0      0.00%    100.00% # Request fanout histogram
system.membus.snoop_fanout::min_value               0                       # Request fanout histogram
system.membus.snoop_fanout::max_value               0                       # Request fanout histogram
system.membus.snoop_fanout::total              199332                       # Request fanout histogram
system.membus.respLayer1.occupancy          657370750                       # Layer occupancy (ticks)
system.membus.respLayer1.utilization              3.4                       # Layer utilization (%)
system.membus.reqLayer0.occupancy           652398000                       # Layer occupancy (ticks)
system.membus.reqLayer0.utilization               3.4                       # Layer utilization (%)
system.tol2bus.pwrStateResidencyTicks::UNDEFINED  19333944500                       # Cumulative time (in ticks) in various power states
system.tol2bus.trans_dist::ReadResp             91715                       # Transaction distribution
system.tol2bus.trans_dist::WritebackDirty       216129                       # Transaction distribution
system.tol2bus.trans_dist::WritebackClean          229                       # Transaction distribution
system.tol2bus.trans_dist::CleanEvict          168354                       # Transaction distribution
system.tol2bus.trans_dist::ReadExReq           111579                       # Transaction distribution
system.tol2bus.trans_dist::ReadExResp          111579                       # Transaction distribution
system.tol2bus.trans_dist::ReadCleanReq           902                       # Transaction distribution
system.tol2bus.trans_dist::ReadSharedReq        90813                       # Transaction distribution
system.tol2bus.trans_dist::InvalidateReq           16                       # Transaction distribution
system.tol2bus.trans_dist::InvalidateResp           16                       # Transaction distribution
system.tol2bus.pkt_count_system.cpu.icache.mem_side::system.l2.cpu_side         2033                       # Packet count per connected master and slave (bytes)
system.tol2bus.pkt_count_system.cpu.dcache.mem_side::system.l2.cpu_side       606200                       # Packet count per connected master and slave (bytes)
system.tol2bus.pkt_count::total                608233                       # Packet count per connected master and slave (bytes)
system.tol2bus.pkt_size_system.cpu.icache.mem_side::system.l2.cpu_side        36192                       # Cumulative packet size per connected master and slave (bytes)
system.tol2bus.pkt_size_system.cpu.dcache.mem_side::system.l2.cpu_side     10071296                       # Cumulative packet size per connected master and slave (bytes)
system.tol2bus.pkt_size::total               10107488                       # Cumulative packet size per connected master and slave (bytes)
system.tol2bus.snoops                          183099                       # Total snoops (count)
system.tol2bus.snoopTraffic                   3321376                       # Total snoop traffic (bytes)
system.tol2bus.snoop_fanout::samples           386409                       # Request fanout histogram
system.tol2bus.snoop_fanout::mean            0.019792                       # Request fanout histogram
system.tol2bus.snoop_fanout::stdev           0.140157                       # Request fanout histogram
system.tol2bus.snoop_fanout::underflows             0      0.00%      0.00% # Request fanout histogram
system.tol2bus.snoop_fanout::0                 378808     98.03%     98.03% # Request fanout histogram
system.tol2bus.snoop_fanout::1                   7554      1.95%     99.99% # Request fanout histogram
system.tol2bus.snoop_fanout::2                     47      0.01%    100.00% # Request fanout histogram
system.tol2bus.snoop_fanout::overflows              0      0.00%    100.00% # Request fanout histogram
system.tol2bus.snoop_fanout::min_value              0                       # Request fanout histogram
system.tol2bus.snoop_fanout::max_value              2                       # Request fanout histogram
system.tol2bus.snoop_fanout::total             386409                       # Request fanout histogram
system.tol2bus.reqLayer0.occupancy          258744000                       # Layer occupancy (ticks)
system.tol2bus.reqLayer0.utilization              1.3                       # Layer utilization (%)
system.tol2bus.respLayer1.occupancy         202401497                       # Layer occupancy (ticks)
system.tol2bus.respLayer1.utilization             1.0                       # Layer utilization (%)
system.tol2bus.respLayer0.occupancy            902499                       # Layer occupancy (ticks)
system.tol2bus.respLayer0.utilization             0.0                       # Layer utilization (%)
system.voltage_domain.voltage                       1                       # Voltage in Volts
system.clk_domain.clock                          1000                       # Clock period in ticks
system.l2.pwrStateResidencyTicks::UNDEFINED  19333944500                       # Cumulative time (in ticks) in various power states
system.l2.demand_hits::.cpu.inst                   86                       # number of demand (read+write) hits
system.l2.demand_hits::.cpu.data                 3872                       # number of demand (read+write) hits
system.l2.demand_hits::total                     3958                       # number of demand (read+write) hits
system.l2.overall_hits::.cpu.inst                  86                       # number of overall hits
system.l2.overall_hits::.cpu.data                3872                       # number of overall hits
system.l2.overall_hits::total                    3958                       # number of overall hits
system.l2.demand_misses::.cpu.inst                816                       # number of demand (read+write) misses
system.l2.demand_misses::.cpu.data             198520                       # number of demand (read+write) misses
system.l2.demand_misses::total                 199336                       # number of demand (read+write) misses
system.l2.overall_misses::.cpu.inst               816                       # number of overall misses
system.l2.overall_misses::.cpu.data            198520                       # number of overall misses
system.l2.overall_misses::total                199336                       # number of overall misses
system.l2.demand_miss_latency::.cpu.inst     62798000                       # number of demand (read+write) miss cycles
system.l2.demand_miss_latency::.cpu.data  15628181000                       # number of demand (read+write) miss cycles
system.l2.demand_miss_latency::total      15690979000                       # number of demand (read+write) miss cycles
system.l2.overall_miss_latency::.cpu.inst     62798000                       # number of overall miss cycles
system.l2.overall_miss_latency::.cpu.data  15628181000                       # number of overall miss cycles
system.l2.overall_miss_latency::total     15690979000                       # number of overall miss cycles
system.l2.demand_accesses::.cpu.inst              902                       # number of demand (read+write) accesses
system.l2.demand_accesses::.cpu.data           202392                       # number of demand (read+write) accesses
system.l2.demand_accesses::total               203294                       # number of demand (read+write) accesses
system.l2.overall_accesses::.cpu.inst             902                       # number of overall (read+write) accesses
system.l2.overall_accesses::.cpu.data          202392                       # number of overall (read+write) accesses
system.l2.overall_accesses::total              203294                       # number of overall (read+write) accesses
system.l2.demand_miss_rate::.cpu.inst        0.904656                       # miss rate for demand accesses
system.l2.demand_miss_rate::.cpu.data        0.980869                       # miss rate for demand accesses
system.l2.demand_miss_rate::total            0.980531                       # miss rate for demand accesses
system.l2.overall_miss_rate::.cpu.inst       0.904656                       # miss rate for overall accesses
system.l2.overall_miss_rate::.cpu.data       0.980869                       # miss rate for overall accesses
system.l2.overall_miss_rate::total           0.980531                       # miss rate for overall accesses
system.l2.demand_avg_miss_latency::.cpu.inst 76958.333333                       # average overall miss latency
system.l2.demand_avg_miss_latency::.cpu.data 78723.458594                       # average overall miss latency
system.l2.demand_avg_miss_latency::total 78716.232893                       # average overall miss latency
system.l2.overall_avg_miss_latency::.cpu.inst 76958.333333                       # average overall miss latency
system.l2.overall_avg_miss_latency::.cpu.data 78723.458594                       # average overall miss latency
system.l2.overall_avg_miss_latency::total 78716.232893                       # average overall miss latency
system.l2.blocked_cycles::no_mshrs                  0                       # number of cycles access was blocked
system.l2.blocked_cycles::no_targets                0                       # number of cycles access was blocked
system.l2.blocked::no_mshrs                         0                       # number of cycles access was blocked
system.l2.blocked::no_targets                       0                       # number of cycles access was blocked
system.l2.avg_blocked_cycles::no_mshrs            nan                       # average number of cycles each access was blocked
system.l2.avg_blocked_cycles::no_targets          nan                       # average number of cycles each access was blocked
system.l2.writebacks::.writebacks              103793                       # number of writebacks
system.l2.writebacks::total                    103793                       # number of writebacks
system.l2.demand_mshr_hits::.cpu.inst               1                       # number of demand (read+write) MSHR hits
system.l2.demand_mshr_hits::.cpu.data               3                       # number of demand (read+write) MSHR hits
system.l2.demand_mshr_hits::total                   4                       # number of demand (read+write) MSHR hits
system.l2.overall_mshr_hits::.cpu.inst              1                       # number of overall MSHR hits
system.l2.overall_mshr_hits::.cpu.data              3                       # number of overall MSHR hits
system.l2.overall_mshr_hits::total                  4                       # number of overall MSHR hits
system.l2.demand_mshr_misses::.cpu.inst           815                       # number of demand (read+write) MSHR misses
system.l2.demand_mshr_misses::.cpu.data        198517                       # number of demand (read+write) MSHR misses
system.l2.demand_mshr_misses::total            199332                       # number of demand (read+write) MSHR misses
system.l2.overall_mshr_misses::.cpu.inst          815                       # number of overall MSHR misses
system.l2.overall_mshr_misses::.cpu.data       198517                       # number of overall MSHR misses
system.l2.overall_mshr_misses::total           199332                       # number of overall MSHR misses
system.l2.demand_mshr_miss_latency::.cpu.inst     54580500                       # number of demand (read+write) MSHR miss cycles
system.l2.demand_mshr_miss_latency::.cpu.data  13642814000                       # number of demand (read+write) MSHR miss cycles
system.l2.demand_mshr_miss_latency::total  13697394500                       # number of demand (read+write) MSHR miss cycles
system.l2.overall_mshr_miss_latency::.cpu.inst     54580500                       # number of overall MSHR miss cycles
system.l2.overall_mshr_miss_latency::.cpu.data  13642814000                       # number of overall MSHR miss cycles
system.l2.overall_mshr_miss_latency::total  13697394500                       # number of overall MSHR miss cycles
system.l2.demand_mshr_miss_rate::.cpu.inst     0.903548                       # mshr miss rate for demand accesses
system.l2.demand_mshr_miss_rate::.cpu.data     0.980854                       # mshr miss rate for demand accesses
system.l2.demand_mshr_miss_rate::total       0.980511                       # mshr miss rate for demand accesses
system.l2.overall_mshr_miss_rate::.cpu.inst     0.903548                       # mshr miss rate for overall accesses
system.l2.overall_mshr_miss_rate::.cpu.data     0.980854                       # mshr miss rate for overall accesses
system.l2.overall_mshr_miss_rate::total      0.980511                       # mshr miss rate for overall accesses
system.l2.demand_avg_mshr_miss_latency::.cpu.inst 66969.938650                       # average overall mshr miss latency
system.l2.demand_avg_mshr_miss_latency::.cpu.data 68723.655909                       # average overall mshr miss latency
system.l2.demand_avg_mshr_miss_latency::total 68716.485562                       # average overall mshr miss latency
system.l2.overall_avg_mshr_miss_latency::.cpu.inst 66969.938650                       # average overall mshr miss latency
system.l2.overall_avg_mshr_miss_latency::.cpu.data 68723.655909                       # average overall mshr miss latency
system.l2.overall_avg_mshr_miss_latency::total 68716.485562                       # average overall mshr miss latency
system.l2.replacements                         183099                       # number of replacements
system.l2.WritebackDirty_hits::.writebacks       112336                       # number of WritebackDirty hits
system.l2.WritebackDirty_hits::total           112336                       # number of WritebackDirty hits
system.l2.WritebackDirty_accesses::.writebacks       112336                       # number of WritebackDirty accesses(hits+misses)
system.l2.WritebackDirty_accesses::total       112336                       # number of WritebackDirty accesses(hits+misses)
system.l2.WritebackClean_hits::.writebacks          221                       # number of WritebackClean hits
system.l2.WritebackClean_hits::total              221                       # number of WritebackClean hits
system.l2.WritebackClean_accesses::.writebacks          221                       # number of WritebackClean accesses(hits+misses)
system.l2.WritebackClean_accesses::total          221                       # number of WritebackClean accesses(hits+misses)
system.l2.CleanEvict_mshr_misses::.writebacks         6520                       # number of CleanEvict MSHR misses
system.l2.CleanEvict_mshr_misses::total          6520                       # number of CleanEvict MSHR misses
system.l2.CleanEvict_mshr_miss_rate::.writebacks          inf                       # mshr miss rate for CleanEvict accesses
system.l2.CleanEvict_mshr_miss_rate::total          inf                       # mshr miss rate for CleanEvict accesses
system.l2.ReadExReq_hits::.cpu.data              1854                       # number of ReadExReq hits
system.l2.ReadExReq_hits::total                  1854                       # number of ReadExReq hits
system.l2.ReadExReq_misses::.cpu.data          109725                       # number of ReadExReq misses
system.l2.ReadExReq_misses::total              109725                       # number of ReadExReq misses
system.l2.ReadExReq_miss_latency::.cpu.data   8732299500                       # number of ReadExReq miss cycles
system.l2.ReadExReq_miss_latency::total    8732299500                       # number of ReadExReq miss cycles
system.l2.ReadExReq_accesses::.cpu.data        111579                       # number of ReadExReq accesses(hits+misses)
system.l2.ReadExReq_accesses::total            111579                       # number of ReadExReq accesses(hits+misses)
system.l2.ReadExReq_miss_rate::.cpu.data     0.983384                       # miss rate for ReadExReq accesses
system.l2.ReadExReq_miss_rate::total         0.983384                       # miss rate for ReadExReq accesses
system.l2.ReadExReq_avg_miss_latency::.cpu.data 79583.499658                       # average ReadExReq miss latency
system.l2.ReadExReq_avg_miss_latency::total 79583.499658                       # average ReadExReq miss latency
system.l2.ReadExReq_mshr_misses::.cpu.data       109725                       # number of ReadExReq MSHR misses
system.l2.ReadExReq_mshr_misses::total         109725                       # number of ReadExReq MSHR misses
system.l2.ReadExReq_mshr_miss_latency::.cpu.data   7635049500                       # number of ReadExReq MSHR miss cycles
system.l2.ReadExReq_mshr_miss_latency::total   7635049500                       # number of ReadExReq MSHR miss cycles
system.l2.ReadExReq_mshr_miss_rate::.cpu.data     0.983384                       # mshr miss rate for ReadExReq accesses
system.l2.ReadExReq_mshr_miss_rate::total     0.983384                       # mshr miss rate for ReadExReq accesses
system.l2.ReadExReq_avg_mshr_miss_latency::.cpu.data 69583.499658                       # average ReadExReq mshr miss latency
system.l2.ReadExReq_avg_mshr_miss_latency::total 69583.499658                       # average ReadExReq mshr miss latency
system.l2.ReadCleanReq_hits::.cpu.inst             86                       # number of ReadCleanReq hits
system.l2.ReadCleanReq_hits::total                 86                       # number of ReadCleanReq hits
system.l2.ReadCleanReq_misses::.cpu.inst          816                       # number of ReadCleanReq misses
system.l2.ReadCleanReq_misses::total              816                       # number of ReadCleanReq misses
system.l2.ReadCleanReq_miss_latency::.cpu.inst     62798000                       # number of ReadCleanReq miss cycles
system.l2.ReadCleanReq_miss_latency::total     62798000                       # number of ReadCleanReq miss cycles
system.l2.ReadCleanReq_accesses::.cpu.inst          902                       # number of ReadCleanReq accesses(hits+misses)
system.l2.ReadCleanReq_accesses::total            902                       # number of ReadCleanReq accesses(hits+misses)
system.l2.ReadCleanReq_miss_rate::.cpu.inst     0.904656                       # miss rate for ReadCleanReq accesses
system.l2.ReadCleanReq_miss_rate::total      0.904656                       # miss rate for ReadCleanReq accesses
system.l2.ReadCleanReq_avg_miss_latency::.cpu.inst 76958.333333                       # average ReadCleanReq miss latency
system.l2.ReadCleanReq_avg_miss_latency::total 76958.333333                       # average ReadCleanReq miss latency
system.l2.ReadCleanReq_mshr_hits::.cpu.inst            1                       # number of ReadCleanReq MSHR hits
system.l2.ReadCleanReq_mshr_hits::total             1                       # number of ReadCleanReq MSHR hits
system.l2.ReadCleanReq_mshr_misses::.cpu.inst          815                       # number of ReadCleanReq MSHR misses
system.l2.ReadCleanReq_mshr_misses::total          815                       # number of ReadCleanReq MSHR misses
system.l2.ReadCleanReq_mshr_miss_latency::.cpu.inst     54580500                       # number of ReadCleanReq MSHR miss cycles
system.l2.ReadCleanReq_mshr_miss_latency::total     54580500                       # number of ReadCleanReq MSHR miss cycles
system.l2.ReadCleanReq_mshr_miss_rate::.cpu.inst     0.903548                       # mshr miss rate for ReadCleanReq accesses
system.l2.ReadCleanReq_mshr_miss_rate::total     0.903548                       # mshr miss rate for ReadCleanReq accesses
system.l2.ReadCleanReq_avg_mshr_miss_latency::.cpu.inst 66969.938650                       # average ReadCleanReq mshr miss latency
system.l2.ReadCleanReq_avg_mshr_miss_latency::total 66969.938650                       # average ReadCleanReq mshr miss latency
system.l2.ReadSharedReq_hits::.cpu.data          2018                       # number of ReadSharedReq hits
system.l2.ReadSharedReq_hits::total              2018                       # number of ReadSharedReq hits
system.l2.ReadSharedReq_misses::.cpu.data        88795                       # number of ReadSharedReq misses
system.l2.ReadSharedReq_misses::total           88795                       # number of ReadSharedReq misses
system.l2.ReadSharedReq_miss_latency::.cpu.data   6895881500                       # number of ReadSharedReq miss cycles
system.l2.ReadSharedReq_miss_latency::total   6895881500                       # number of ReadSharedReq miss cycles
system.l2.ReadSharedReq_accesses::.cpu.data        90813                       # number of ReadSharedReq accesses(hits+misses)
system.l2.ReadSharedReq_accesses::total         90813                       # number of ReadSharedReq accesses(hits+misses)
system.l2.ReadSharedReq_miss_rate::.cpu.data     0.977779                       # miss rate for ReadSharedReq accesses
system.l2.ReadSharedReq_miss_rate::total     0.977779                       # miss rate for ReadSharedReq accesses
system.l2.ReadSharedReq_avg_miss_latency::.cpu.data 77660.695985                       # average ReadSharedReq miss latency
system.l2.ReadSharedReq_avg_miss_latency::total 77660.695985                       # average ReadSharedReq miss latency
system.l2.ReadSharedReq_mshr_hits::.cpu.data            3                       # number of ReadSharedReq MSHR hits
system.l2.ReadSharedReq_mshr_hits::total            3                       # number of ReadSharedReq MSHR hits
system.l2.ReadSharedReq_mshr_misses::.cpu.data        88792                       # number of ReadSharedReq MSHR misses
system.l2.ReadSharedReq_mshr_misses::total        88792                       # number of ReadSharedReq MSHR misses
system.l2.ReadSharedReq_mshr_miss_latency::.cpu.data   6007764500                       # number of ReadSharedReq MSHR miss cycles
system.l2.ReadSharedReq_mshr_miss_latency::total   6007764500                       # number of ReadSharedReq MSHR miss cycles
system.l2.ReadSharedReq_mshr_miss_rate::.cpu.data     0.977745                       # mshr miss rate for ReadSharedReq accesses
system.l2.ReadSharedReq_mshr_miss_rate::total     0.977745                       # mshr miss rate for ReadSharedReq accesses
system.l2.ReadSharedReq_avg_mshr_miss_latency::.cpu.data 67661.101225                       # average ReadSharedReq mshr miss latency
system.l2.ReadSharedReq_avg_mshr_miss_latency::total 67661.101225                       # average ReadSharedReq mshr miss latency
system.l2.InvalidateReq_hits::.cpu.data            16                       # number of InvalidateReq hits
system.l2.InvalidateReq_hits::total                16                       # number of InvalidateReq hits
system.l2.InvalidateReq_accesses::.cpu.data           16                       # number of InvalidateReq accesses(hits+misses)
system.l2.InvalidateReq_accesses::total            16                       # number of InvalidateReq accesses(hits+misses)
system.l2.tags.pwrStateResidencyTicks::UNDEFINED  19333944500                       # Cumulative time (in ticks) in various power states
system.l2.tags.tagsinuse                 14685.044249                       # Cycle average of tags in use
system.l2.tags.total_refs                      398179                       # Total number of references to valid blocks.
system.l2.tags.sampled_refs                    199499                       # Sample count of references to valid blocks.
system.l2.tags.avg_refs                      1.995895                       # Average number of references to valid blocks.
system.l2.tags.warmup_cycle                     77000                       # Cycle when the warmup percentage was hit.
system.l2.tags.occ_blocks::.writebacks      17.380535                       # Average occupied blocks per requestor
system.l2.tags.occ_blocks::.cpu.inst        90.440344                       # Average occupied blocks per requestor
system.l2.tags.occ_blocks::.cpu.data     14577.223371                       # Average occupied blocks per requestor
system.l2.tags.occ_percent::.writebacks      0.001061                       # Average percentage of cache occupancy
system.l2.tags.occ_percent::.cpu.inst        0.005520                       # Average percentage of cache occupancy
system.l2.tags.occ_percent::.cpu.data        0.889723                       # Average percentage of cache occupancy
system.l2.tags.occ_percent::total            0.896304                       # Average percentage of cache occupancy
system.l2.tags.occ_task_id_blocks::1024         16384                       # Occupied blocks per task id
system.l2.tags.age_task_id_blocks_1024::0            4                       # Occupied blocks per task id
system.l2.tags.age_task_id_blocks_1024::1           38                       # Occupied blocks per task id
system.l2.tags.age_task_id_blocks_1024::2          677                       # Occupied blocks per task id
system.l2.tags.age_task_id_blocks_1024::3        15665                       # Occupied blocks per task id
system.l2.tags.occ_task_id_percent::1024            1                       # Percentage of cache occupancy per task id
system.l2.tags.tag_accesses                    604202                       # Number of tag accesses
system.l2.tags.data_accesses                   604202                       # Number of data accesses
system.cpu_voltage_domain.voltage                   1                       # Voltage in Volts
system.mem_ctrls.pwrStateResidencyTicks::UNDEFINED  19333944500                       # Cumulative time (in ticks) in various power states
system.mem_ctrls.bytes_read::.cpu.inst          26080                       # Number of bytes read from this memory
system.mem_ctrls.bytes_read::.cpu.data        6352544                       # Number of bytes read from this memory
system.mem_ctrls.bytes_read::total            6378624                       # Number of bytes read from this memory
system.mem_ctrls.bytes_inst_read::.cpu.inst        26080                       # Number of instructions bytes read from this memory
system.mem_ctrls.bytes_inst_read::total         26080                       # Number of instructions bytes read from this memory
system.mem_ctrls.bytes_written::.writebacks      3321376                       # Number of bytes written to this memory
system.mem_ctrls.bytes_written::total         3321376                       # Number of bytes written to this memory
system.mem_ctrls.num_reads::.cpu.inst             815                       # Number of read requests responded to by this memory
system.mem_ctrls.num_reads::.cpu.data          198517                       # Number of read requests responded to by this memory
system.mem_ctrls.num_reads::total              199332                       # Number of read requests responded to by this memory
system.mem_ctrls.num_writes::.writebacks       103793                       # Number of write requests responded to by this memory
system.mem_ctrls.num_writes::total             103793                       # Number of write requests responded to by this memory
system.mem_ctrls.bw_read::.cpu.inst           1348923                       # Total read bandwidth from this memory (bytes/s)
system.mem_ctrls.bw_read::.cpu.data         328569475                       # Total read bandwidth from this memory (bytes/s)
system.mem_ctrls.bw_read::total             329918398                       # Total read bandwidth from this memory (bytes/s)
system.mem_ctrls.bw_inst_read::.cpu.inst      1348923                       # Instruction read bandwidth from this memory (bytes/s)
system.mem_ctrls.bw_inst_read::total          1348923                       # Instruction read bandwidth from this memory (bytes/s)
system.mem_ctrls.bw_write::.writebacks      171789880                       # Write bandwidth from this memory (bytes/s)
system.mem_ctrls.bw_write::total            171789880                       # Write bandwidth from this memory (bytes/s)
system.mem_ctrls.bw_total::.writebacks      171789880                       # Total bandwidth to/from this memory (bytes/s)
system.mem_ctrls.bw_total::.cpu.inst          1348923                       # Total bandwidth to/from this memory (bytes/s)
system.mem_ctrls.bw_total::.cpu.data        328569475                       # Total bandwidth to/from this memory (bytes/s)
system.mem_ctrls.bw_total::total            501708278                       # Total bandwidth to/from this memory (bytes/s)
system.mem_ctrls.avgPriority_.writebacks::samples     68102.00                       # Average QoS priority value for accepted requests
system.mem_ctrls.avgPriority_.cpu.inst::samples       815.00                       # Average QoS priority value for accepted requests
system.mem_ctrls.avgPriority_.cpu.data::samples    198517.00                       # Average QoS priority value for accepted requests
system.mem_ctrls.priorityMinLatency      0.000000018750                       # per QoS priority minimum request to response latency (s)
system.mem_ctrls.priorityMaxLatency      0.000710022500                       # per QoS priority maximum request to response latency (s)
system.mem_ctrls.numReadWriteTurnArounds         4247                       # Number of turnarounds from READ to WRITE
system.mem_ctrls.numWriteReadTurnArounds         4247                       # Number of turnarounds from WRITE to READ
system.mem_ctrls.numStayReadState              500941                       # Number of times bus staying in READ state
system.mem_ctrls.numStayWriteState              63911                       # Number of times bus staying in WRITE state
system.mem_ctrls.readReqs                      199332                       # Number of read requests accepted
system.mem_ctrls.writeReqs                     103793                       # Number of write requests accepted
system.mem_ctrls.readBursts                    199332                       # Number of DRAM read bursts, including those serviced by the write queue
system.mem_ctrls.writeBursts                   103793                       # Number of DRAM write bursts, including those merged in the write queue
system.mem_ctrls.servicedByWrQ                      0                       # Number of DRAM read bursts serviced by the write queue
system.mem_ctrls.mergedWrBursts                 35691                       # Number of DRAM write bursts merged with an existing one
system.mem_ctrls.neitherReadNorWriteReqs            0                       # Number of requests that are neither read nor write
system.mem_ctrls.perBankRdBursts::0             12782                       # Per bank write bursts
system.mem_ctrls.perBankRdBursts::1             12597                       # Per bank write bursts
system.mem_ctrls.perBankRdBursts::2             12542                       # Per bank write bursts
system.mem_ctrls.perBankRdBursts::3             12442                       # Per bank write bursts
system.mem_ctrls.perBankRdBursts::4             12523                       # Per bank write bursts
system.mem_ctrls.perBankRdBursts::5             12395                       # Per bank write bursts
system.mem_ctrls.perBankRdBursts::6             12424                       # Per bank write bursts
system.mem_ctrls.perBankRdBursts::7             12746                       # Per bank write bursts
system.mem_ctrls.perBankRdBursts::8             12414                       # Per bank write bursts
system.mem_ctrls.perBankRdBursts::9             12285                       # Per bank write bursts
system.mem_ctrls.perBankRdBursts::10            12319                       # Per bank write bursts
system.mem_ctrls.perBankRdBursts::11            12307                       # Per bank write bursts
system.mem_ctrls.perBankRdBursts::12            12441                       # Per bank write bursts
system.mem_ctrls.perBankRdBursts::13            12383                       # Per bank write bursts
system.mem_ctrls.perBankRdBursts::14            12323                       # Per bank write bursts
system.mem_ctrls.perBankRdBursts::15            12409                       # Per bank write bursts
system.mem_ctrls.perBankWrBursts::0              4318                       # Per bank write bursts
system.mem_ctrls.perBankWrBursts::1              4327                       # Per bank write bursts
system.mem_ctrls.perBankWrBursts::2              4379                       # Per bank write bursts
system.mem_ctrls.perBankWrBursts::3              4343                       # Per bank write bursts
system.mem_ctrls.perBankWrBursts::4              4384                       # Per bank write bursts
system.mem_ctrls.perBankWrBursts::5              4358                       # Per bank write bursts
system.mem_ctrls.perBankWrBursts::6              4218                       # Per bank write bursts
system.mem_ctrls.perBankWrBursts::7              4285                       # Per bank write bursts
system.mem_ctrls.perBankWrBursts::8              4188                       # Per bank write bursts
system.mem_ctrls.perBankWrBursts::9              4153                       # Per bank write bursts
system.mem_ctrls.perBankWrBursts::10             4151                       # Per bank write bursts
system.mem_ctrls.perBankWrBursts::11             4149                       # Per bank write bursts
system.mem_ctrls.perBankWrBursts::12             4205                       # Per bank write bursts
system.mem_ctrls.perBankWrBursts::13             4206                       # Per bank write bursts
system.mem_ctrls.perBankWrBursts::14             4191                       # Per bank write bursts
system.mem_ctrls.perBankWrBursts::15             4225                       # Per bank write bursts
system.mem_ctrls.avgRdQLen                       1.25                       # Average read queue length when enqueuing
system.mem_ctrls.avgWrQLen                      25.06                       # Average write queue length when enqueuing
system.mem_ctrls.totQLat                   1729491250                       # Total ticks spent queuing
system.mem_ctrls.totBusLat                  996660000                       # Total ticks spent in databus transfers
system.mem_ctrls.totMemAccLat              5466966250                       # Total ticks spent from burst creation until serviced by the DRAM
system.mem_ctrls.avgQLat                      8676.44                       # Average queueing delay per DRAM burst
system.mem_ctrls.avgBusLat                    5000.00                       # Average bus latency per DRAM burst
system.mem_ctrls.avgMemAccLat                27426.44                       # Average memory access latency per DRAM burst
system.mem_ctrls.numRdRetry                         0                       # Number of times read queue was full causing retry
system.mem_ctrls.numWrRetry                         0                       # Number of times write queue was full causing retry
system.mem_ctrls.readRowHits                   181015                       # Number of row buffer hits during reads
system.mem_ctrls.writeRowHits                   60798                       # Number of row buffer hits during writes
system.mem_ctrls.readRowHitRate                 90.81                       # Row buffer hit rate for reads
system.mem_ctrls.writeRowHitRate                89.27                       # Row buffer hit rate for writes
system.mem_ctrls.readPktSize::0                     0                       # Read request sizes (log2)
system.mem_ctrls.readPktSize::1                     0                       # Read request sizes (log2)
system.mem_ctrls.readPktSize::2                     0                       # Read request sizes (log2)
system.mem_ctrls.readPktSize::3                     0                       # Read request sizes (log2)
system.mem_ctrls.readPktSize::4                     0                       # Read request sizes (log2)
system.mem_ctrls.readPktSize::5                199332                       # Read request sizes (log2)
system.mem_ctrls.readPktSize::6                     0                       # Read request sizes (log2)
system.mem_ctrls.writePktSize::0                    0                       # Write request sizes (log2)
system.mem_ctrls.writePktSize::1                    0                       # Write request sizes (log2)
system.mem_ctrls.writePktSize::2                    0                       # Write request sizes (log2)
system.mem_ctrls.writePktSize::3                    0                       # Write request sizes (log2)
system.mem_ctrls.writePktSize::4                    0                       # Write request sizes (log2)
system.mem_ctrls.writePktSize::5               103793                       # Write request sizes (log2)
system.mem_ctrls.writePktSize::6                    0                       # Write request sizes (log2)
system.mem_ctrls.rdQLenPdf::0                  145428                       # What read queue length does an incoming req see
system.mem_ctrls.rdQLenPdf::1                   53802                       # What read queue length does an incoming req see
system.mem_ctrls.rdQLenPdf::2                      95                       # What read queue length does an incoming req see
system.mem_ctrls.rdQLenPdf::3                       6                       # What read queue length does an incoming req see
system.mem_ctrls.rdQLenPdf::4                       1                       # What read queue length does an incoming req see
system.mem_ctrls.rdQLenPdf::5                       0                       # What read queue length does an incoming req see
system.mem_ctrls.rdQLenPdf::6                       0                       # What read queue length does an incoming req see
system.mem_ctrls.rdQLenPdf::7                       0                       # What read queue length does an incoming req see
system.mem_ctrls.rdQLenPdf::8                       0                       # What read queue length does an incoming req see
system.mem_ctrls.rdQLenPdf::9                       0                       # What read queue length does an incoming req see
system.mem_ctrls.rdQLenPdf::10                      0                       # What read queue length does an incoming req see
system.mem_ctrls.rdQLenPdf::11                      0                       # What read queue length does an incoming req see
system.mem_ctrls.rdQLenPdf::12                      0                       # What read queue length does an incoming req see
system.mem_ctrls.rdQLenPdf::13                      0                       # What read queue length does an incoming req see
system.mem_ctrls.rdQLenPdf::14                      0                       # What read queue length does an incoming req see
system.mem_ctrls.rdQLenPdf::15                      0                       # What read queue length does an incoming req see
system.mem_ctrls.rdQLenPdf::16                      0                       # What read queue length does an incoming req see
system.mem_ctrls.rdQLenPdf::17                      0                       # What read queue length does an incoming req see
system.mem_ctrls.rdQLenPdf::18                      0                       # What read queue length does an incoming req see
system.mem_ctrls.rdQLenPdf::19                      0                       # What read queue length does an incoming req see
system.mem_ctrls.rdQLenPdf::20                      0                       # What read queue length does an incoming req see
system.mem_ctrls.rdQLenPdf::21                      0                       # What read queue length does an incoming req see
system.mem_ctrls.rdQLenPdf::22                      0                       # What read queue length does an incoming req see
system.mem_ctrls.rdQLenPdf::23                      0                       # What read queue length does an incoming req see
system.mem_ctrls.rdQLenPdf::24                      0                       # What read queue length does an incoming req see
system.mem_ctrls.rdQLenPdf::25                      0                       # What read queue length does an incoming req see
system.mem_ctrls.rdQLenPdf::26                      0                       # What read queue length does an incoming req see
system.mem_ctrls.rdQLenPdf::27                      0                       # What read queue length does an incoming req see
system.mem_ctrls.rdQLenPdf::28                      0                       # What read queue length does an incoming req see
system.mem_ctrls.rdQLenPdf::29                      0                       # What read queue length does an incoming req see
system.mem_ctrls.rdQLenPdf::30                      0                       # What read queue length does an incoming req see
system.mem_ctrls.rdQLenPdf::31                      0                       # What read queue length does an incoming req see
system.mem_ctrls.wrQLenPdf::0                       1                       # What write queue length does an incoming req see
system.mem_ctrls.wrQLenPdf::1                       1                       # What write queue length does an incoming req see
system.mem_ctrls.wrQLenPdf::2                       1                       # What write queue length does an incoming req see
system.mem_ctrls.wrQLenPdf::3                       1                       # What write queue length does an incoming req see
system.mem_ctrls.wrQLenPdf::4                       1                       # What write queue length does an incoming req see
system.mem_ctrls.wrQLenPdf::5                       1                       # What write queue length does an incoming req see
system.mem_ctrls.wrQLenPdf::6                       1                       # What write queue length does an incoming req see
system.mem_ctrls.wrQLenPdf::7                       1                       # What write queue length does an incoming req see
system.mem_ctrls.wrQLenPdf::8                       1                       # What write queue length does an incoming req see
system.mem_ctrls.wrQLenPdf::9                       1                       # What write queue length does an incoming req see
system.mem_ctrls.wrQLenPdf::10                      1                       # What write queue length does an incoming req see
system.mem_ctrls.wrQLenPdf::11                      1                       # What write queue length does an incoming req see
system.mem_ctrls.wrQLenPdf::12                      1                       # What write queue length does an incoming req see
system.mem_ctrls.wrQLenPdf::13                      1                       # What write queue length does an incoming req see
system.mem_ctrls.wrQLenPdf::14                      1                       # What write queue length does an incoming req see
system.mem_ctrls.wrQLenPdf::15                     63                       # What write queue length does an incoming req see
system.mem_ctrls.wrQLenPdf::16                     63                       # What write queue length does an incoming req see
system.mem_ctrls.wrQLenPdf::17                   3928                       # What write queue length does an incoming req see
system.mem_ctrls.wrQLenPdf::18                   4317                       # What write queue length does an incoming req see
system.mem_ctrls.wrQLenPdf::19                   4252                       # What write queue length does an incoming req see
system.mem_ctrls.wrQLenPdf::20                   4303                       # What write queue length does an incoming req see
system.mem_ctrls.wrQLenPdf::21                   4249                       # What write queue length does an incoming req see
system.mem_ctrls.wrQLenPdf::22                   4251                       # What write queue length does an incoming req see
system.mem_ctrls.wrQLenPdf::23                   4266                       # What write queue length does an incoming req see
system.mem_ctrls.wrQLenPdf::24                   4357                       # What write queue length does an incoming req see
system.mem_ctrls.wrQLenPdf::25                   4279                       # What write queue length does an incoming req see
system.mem_ctrls.wrQLenPdf::26                   4248                       # What write queue length does an incoming req see
system.mem_ctrls.wrQLenPdf::27                   4248                       # What write queue length does an incoming req see
system.mem_ctrls.wrQLenPdf::28                   4270                       # What write queue length does an incoming req see
system.mem_ctrls.wrQLenPdf::29                   4249                       # What write queue length does an incoming req see
system.mem_ctrls.wrQLenPdf::30                   4247                       # What write queue length does an incoming req see
system.mem_ctrls.wrQLenPdf::31                   4250                       # What write queue length does an incoming req see
system.mem_ctrls.wrQLenPdf::32                   4247                       # What write queue length does an incoming req see
system.mem_ctrls.wrQLenPdf::33                      0                       # What write queue length does an incoming req see
system.mem_ctrls.wrQLenPdf::34                      0                       # What write queue length does an incoming req see
system.mem_ctrls.wrQLenPdf::35                      0                       # What write queue length does an incoming req see
system.mem_ctrls.wrQLenPdf::36                      0                       # What write queue length does an incoming req see
system.mem_ctrls.wrQLenPdf::37                      0                       # What write queue length does an incoming req see
system.mem_ctrls.wrQLenPdf::38                      0                       # What write queue length does an incoming req see
system.mem_ctrls.wrQLenPdf::39                      0                       # What write queue length does an incoming req see
system.mem_ctrls.wrQLenPdf::40                      0                       # What write queue length does an incoming req see
system.mem_ctrls.wrQLenPdf::41                      0                       # What write queue length does an incoming req see
system.mem_ctrls.wrQLenPdf::42                      0                       # What write queue length does an incoming req see
system.mem_ctrls.wrQLenPdf::43                      0                       # What write queue length does an incoming req see
system.mem_ctrls.wrQLenPdf::44                      0                       # What write queue length does an incoming req see
system.mem_ctrls.wrQLenPdf::45                      0                       # What write queue length does an incoming req see
system.mem_ctrls.wrQLenPdf::46                      0                       # What write queue length does an incoming req see
system.mem_ctrls.wrQLenPdf::47                      0                       # What write queue length does an incoming req see
system.mem_ctrls.wrQLenPdf::48                      0                       # What write queue length does an incoming req see
system.mem_ctrls.wrQLenPdf::49                      0                       # What write queue length does an incoming req see
system.mem_ctrls.wrQLenPdf::50                      0                       # What write queue length does an incoming req see
system.mem_ctrls.wrQLenPdf::51                      0                       # What write queue length does an incoming req see
system.mem_ctrls.wrQLenPdf::52                      0                       # What write queue length does an incoming req see
system.mem_ctrls.wrQLenPdf::53                      0                       # What write queue length does an incoming req see
system.mem_ctrls.wrQLenPdf::54                      0                       # What write queue length does an incoming req see
system.mem_ctrls.wrQLenPdf::55                      0                       # What write queue length does an incoming req see
system.mem_ctrls.wrQLenPdf::56                      0                       # What write queue length does an incoming req see
system.mem_ctrls.wrQLenPdf::57                      0                       # What write queue length does an incoming req see
system.mem_ctrls.wrQLenPdf::58                      0                       # What write queue length does an incoming req see
system.mem_ctrls.wrQLenPdf::59                      0                       # What write queue length does an incoming req see
system.mem_ctrls.wrQLenPdf::60                      0                       # What write queue length does an incoming req see
system.mem_ctrls.wrQLenPdf::61                      0                       # What write queue length does an incoming req see
system.mem_ctrls.wrQLenPdf::62                      0                       # What write queue length does an incoming req see
system.mem_ctrls.wrQLenPdf::63                      0                       # What write queue length does an incoming req see
system.mem_ctrls.bytesPerActivate::samples        25599                       # Bytes accessed per row activation
system.mem_ctrls.bytesPerActivate::mean    668.556115                       # Bytes accessed per row activation
system.mem_ctrls.bytesPerActivate::gmean   562.028894                       # Bytes accessed per row activation
system.mem_ctrls.bytesPerActivate::stdev   315.826872                       # Bytes accessed per row activation
system.mem_ctrls.bytesPerActivate::0-127          955      3.73%      3.73% # Bytes accessed per row activation
system.mem_ctrls.bytesPerActivate::128-255         2125      8.30%     12.03% # Bytes accessed per row activation
system.mem_ctrls.bytesPerActivate::256-383          960      3.75%     15.78% # Bytes accessed per row activation
system.mem_ctrls.bytesPerActivate::384-511          833      3.25%     19.04% # Bytes accessed per row activation
system.mem_ctrls.bytesPerActivate::512-639         9303     36.34%     55.38% # Bytes accessed per row activation
system.mem_ctrls.bytesPerActivate::640-767          497      1.94%     57.32% # Bytes accessed per row activation
system.mem_ctrls.bytesPerActivate::768-895          512      2.00%     59.32% # Bytes accessed per row activation
system.mem_ctrls.bytesPerActivate::896-1023         1163      4.54%     63.86% # Bytes accessed per row activation
system.mem_ctrls.bytesPerActivate::1024-1151         9251     36.14%    100.00% # Bytes accessed per row activation
system.mem_ctrls.bytesPerActivate::total        25599                       # Bytes accessed per row activation
system.mem_ctrls.rdPerTurnAround::samples         4247                       # Reads before turning the bus around for writes
[...]
system.cpu.icache.tags.occ_percent::total     0.285459                       # Average percentage of cache occupancy
system.cpu.icache.tags.occ_task_id_blocks::1024          673                       # Occupied blocks per task id
system.cpu.icache.tags.age_task_id_blocks_1024::3          184                       # Occupied blocks per task id
system.cpu.icache.tags.age_task_id_blocks_1024::4          489                       # Occupied blocks per task id
system.cpu.icache.tags.occ_task_id_percent::1024     0.328613                       # Percentage of cache occupancy per task id
system.cpu.icache.tags.tag_accesses           1529798                       # Number of tag accesses
system.cpu.icache.tags.data_accesses          1529798                       # Number of data accesses
system.cpu.dtb.walker.pwrStateResidencyTicks::UNDEFINED  19333944500                       # Cumulative time (in ticks) in various power states
system.cpu.dtb.stage2_mmu.stage2_tlb.walker.pwrStateResidencyTicks::UNDEFINED  19333944500                       # Cumulative time (in ticks) in various power states
system.cpu.dcache.pwrStateResidencyTicks::UNDEFINED  19333944500                       # Cumulative time (in ticks) in various power states
system.cpu.dcache.demand_hits::.cpu.data      6865415                       # number of demand (read+write) hits
system.cpu.dcache.demand_hits::total          6865415                       # number of demand (read+write) hits
system.cpu.dcache.overall_hits::.cpu.data      6865489                       # number of overall hits
system.cpu.dcache.overall_hits::total         6865489                       # number of overall hits
system.cpu.dcache.demand_misses::.cpu.data       278154                       # number of demand (read+write) misses
system.cpu.dcache.demand_misses::total         278154                       # number of demand (read+write) misses
system.cpu.dcache.overall_misses::.cpu.data       279690                       # number of overall misses
system.cpu.dcache.overall_misses::total        279690                       # number of overall misses
system.cpu.dcache.demand_miss_latency::.cpu.data  19076643499                       # number of demand (read+write) miss cycles
system.cpu.dcache.demand_miss_latency::total  19076643499                       # number of demand (read+write) miss cycles
system.cpu.dcache.overall_miss_latency::.cpu.data  19076643499                       # number of overall miss cycles
system.cpu.dcache.overall_miss_latency::total  19076643499                       # number of overall miss cycles
system.cpu.dcache.demand_accesses::.cpu.data      7143569                       # number of demand (read+write) accesses
system.cpu.dcache.demand_accesses::total      7143569                       # number of demand (read+write) accesses
system.cpu.dcache.overall_accesses::.cpu.data      7145179                       # number of overall (read+write) accesses
system.cpu.dcache.overall_accesses::total      7145179                       # number of overall (read+write) accesses
system.cpu.dcache.demand_miss_rate::.cpu.data     0.038938                       # miss rate for demand accesses
system.cpu.dcache.demand_miss_rate::total     0.038938                       # miss rate for demand accesses
system.cpu.dcache.overall_miss_rate::.cpu.data     0.039144                       # miss rate for overall accesses
system.cpu.dcache.overall_miss_rate::total     0.039144                       # miss rate for overall accesses
system.cpu.dcache.demand_avg_miss_latency::.cpu.data 68583.027744                       # average overall miss latency
system.cpu.dcache.demand_avg_miss_latency::total 68583.027744                       # average overall miss latency
system.cpu.dcache.overall_avg_miss_latency::.cpu.data 68206.383850                       # average overall miss latency
system.cpu.dcache.overall_avg_miss_latency::total 68206.383850                       # average overall miss latency
system.cpu.dcache.blocked_cycles::no_mshrs         1086                       # number of cycles access was blocked
system.cpu.dcache.blocked_cycles::no_targets            0                       # number of cycles access was blocked
system.cpu.dcache.blocked::no_mshrs                26                       # number of cycles access was blocked
system.cpu.dcache.blocked::no_targets               0                       # number of cycles access was blocked
system.cpu.dcache.avg_blocked_cycles::no_mshrs    41.769231                       # average number of cycles each access was blocked
system.cpu.dcache.avg_blocked_cycles::no_targets          nan                       # average number of cycles each access was blocked
system.cpu.dcache.writebacks::.writebacks       112336                       # number of writebacks
system.cpu.dcache.writebacks::total            112336                       # number of writebacks
system.cpu.dcache.demand_mshr_hits::.cpu.data        77283                       # number of demand (read+write) MSHR hits
system.cpu.dcache.demand_mshr_hits::total        77283                       # number of demand (read+write) MSHR hits
system.cpu.dcache.overall_mshr_hits::.cpu.data        77283                       # number of overall MSHR hits
system.cpu.dcache.overall_mshr_hits::total        77283                       # number of overall MSHR hits
system.cpu.dcache.demand_mshr_misses::.cpu.data       200871                       # number of demand (read+write) MSHR misses
system.cpu.dcache.demand_mshr_misses::total       200871                       # number of demand (read+write) MSHR misses
system.cpu.dcache.overall_mshr_misses::.cpu.data       202407                       # number of overall MSHR misses
system.cpu.dcache.overall_mshr_misses::total       202407                       # number of overall MSHR misses
system.cpu.dcache.demand_mshr_miss_latency::.cpu.data  15866313000                       # number of demand (read+write) MSHR miss cycles
system.cpu.dcache.demand_mshr_miss_latency::total  15866313000                       # number of demand (read+write) MSHR miss cycles
system.cpu.dcache.overall_mshr_miss_latency::.cpu.data  15980899497                       # number of overall MSHR miss cycles
system.cpu.dcache.overall_mshr_miss_latency::total  15980899497                       # number of overall MSHR miss cycles
system.cpu.dcache.demand_mshr_miss_rate::.cpu.data     0.028119                       # mshr miss rate for demand accesses
system.cpu.dcache.demand_mshr_miss_rate::total     0.028119                       # mshr miss rate for demand accesses
system.cpu.dcache.overall_mshr_miss_rate::.cpu.data     0.028328                       # mshr miss rate for overall accesses
system.cpu.dcache.overall_mshr_miss_rate::total     0.028328                       # mshr miss rate for overall accesses
system.cpu.dcache.demand_avg_mshr_miss_latency::.cpu.data 78987.574115                       # average overall mshr miss latency
system.cpu.dcache.demand_avg_mshr_miss_latency::total 78987.574115                       # average overall mshr miss latency
system.cpu.dcache.overall_avg_mshr_miss_latency::.cpu.data 78954.282693                       # average overall mshr miss latency
system.cpu.dcache.overall_avg_mshr_miss_latency::total 78954.282693                       # average overall mshr miss latency
system.cpu.dcache.replacements                 201384                       # number of replacements
system.cpu.dcache.ReadReq_hits::.cpu.data      5597978                       # number of ReadReq hits
system.cpu.dcache.ReadReq_hits::total         5597978                       # number of ReadReq hits
system.cpu.dcache.ReadReq_misses::.cpu.data        90067                       # number of ReadReq misses
system.cpu.dcache.ReadReq_misses::total         90067                       # number of ReadReq misses
system.cpu.dcache.ReadReq_miss_latency::.cpu.data   7094495999                       # number of ReadReq miss cycles
system.cpu.dcache.ReadReq_miss_latency::total   7094495999                       # number of ReadReq miss cycles
system.cpu.dcache.ReadReq_accesses::.cpu.data      5688045                       # number of ReadReq accesses(hits+misses)
system.cpu.dcache.ReadReq_accesses::total      5688045                       # number of ReadReq accesses(hits+misses)
system.cpu.dcache.ReadReq_miss_rate::.cpu.data     0.015834                       # miss rate for ReadReq accesses
system.cpu.dcache.ReadReq_miss_rate::total     0.015834                       # miss rate for ReadReq accesses
system.cpu.dcache.ReadReq_avg_miss_latency::.cpu.data 78769.094108                       # average ReadReq miss latency
system.cpu.dcache.ReadReq_avg_miss_latency::total 78769.094108                       # average ReadReq miss latency
system.cpu.dcache.ReadReq_mshr_hits::.cpu.data          791                       # number of ReadReq MSHR hits
system.cpu.dcache.ReadReq_mshr_hits::total          791                       # number of ReadReq MSHR hits
system.cpu.dcache.ReadReq_mshr_misses::.cpu.data        89276                       # number of ReadReq MSHR misses
system.cpu.dcache.ReadReq_mshr_misses::total        89276                       # number of ReadReq MSHR misses
system.cpu.dcache.ReadReq_mshr_miss_latency::.cpu.data   6943928500                       # number of ReadReq MSHR miss cycles
system.cpu.dcache.ReadReq_mshr_miss_latency::total   6943928500                       # number of ReadReq MSHR miss cycles
system.cpu.dcache.ReadReq_mshr_miss_rate::.cpu.data     0.015695                       # mshr miss rate for ReadReq accesses
system.cpu.dcache.ReadReq_mshr_miss_rate::total     0.015695                       # mshr miss rate for ReadReq accesses
system.cpu.dcache.ReadReq_avg_mshr_miss_latency::.cpu.data 77780.461714                       # average ReadReq mshr miss latency
system.cpu.dcache.ReadReq_avg_mshr_miss_latency::total 77780.461714                       # average ReadReq mshr miss latency
system.cpu.dcache.WriteReq_hits::.cpu.data      1267437                       # number of WriteReq hits
system.cpu.dcache.WriteReq_hits::total        1267437                       # number of WriteReq hits
system.cpu.dcache.WriteReq_misses::.cpu.data       188087                       # number of WriteReq misses
system.cpu.dcache.WriteReq_misses::total       188087                       # number of WriteReq misses
system.cpu.dcache.WriteReq_miss_latency::.cpu.data  11982147500                       # number of WriteReq miss cycles
system.cpu.dcache.WriteReq_miss_latency::total  11982147500                       # number of WriteReq miss cycles
system.cpu.dcache.WriteReq_accesses::.cpu.data      1455524                       # number of WriteReq accesses(hits+misses)
system.cpu.dcache.WriteReq_accesses::total      1455524                       # number of WriteReq accesses(hits+misses)
system.cpu.dcache.WriteReq_miss_rate::.cpu.data     0.129223                       # miss rate for WriteReq accesses
system.cpu.dcache.WriteReq_miss_rate::total     0.129223                       # miss rate for WriteReq accesses
system.cpu.dcache.WriteReq_avg_miss_latency::.cpu.data 63705.346462                       # average WriteReq miss latency
system.cpu.dcache.WriteReq_avg_miss_latency::total 63705.346462                       # average WriteReq miss latency
system.cpu.dcache.WriteReq_mshr_hits::.cpu.data        76492                       # number of WriteReq MSHR hits
system.cpu.dcache.WriteReq_mshr_hits::total        76492                       # number of WriteReq MSHR hits
system.cpu.dcache.WriteReq_mshr_misses::.cpu.data       111595                       # number of WriteReq MSHR misses
system.cpu.dcache.WriteReq_mshr_misses::total       111595                       # number of WriteReq MSHR misses
system.cpu.dcache.WriteReq_mshr_miss_latency::.cpu.data   8922384500                       # number of WriteReq MSHR miss cycles
system.cpu.dcache.WriteReq_mshr_miss_latency::total   8922384500                       # number of WriteReq MSHR miss cycles
system.cpu.dcache.WriteReq_mshr_miss_rate::.cpu.data     0.076670                       # mshr miss rate for WriteReq accesses
system.cpu.dcache.WriteReq_mshr_miss_rate::total     0.076670                       # mshr miss rate for WriteReq accesses
system.cpu.dcache.WriteReq_avg_mshr_miss_latency::.cpu.data 79953.264035                       # average WriteReq mshr miss latency
system.cpu.dcache.WriteReq_avg_mshr_miss_latency::total 79953.264035                       # average WriteReq mshr miss latency
system.cpu.dcache.SoftPFReq_hits::.cpu.data           74                       # number of SoftPFReq hits
system.cpu.dcache.SoftPFReq_hits::total            74                       # number of SoftPFReq hits
system.cpu.dcache.SoftPFReq_misses::.cpu.data         1536                       # number of SoftPFReq misses
system.cpu.dcache.SoftPFReq_misses::total         1536                       # number of SoftPFReq misses
system.cpu.dcache.SoftPFReq_accesses::.cpu.data         1610                       # number of SoftPFReq accesses(hits+misses)
system.cpu.dcache.SoftPFReq_accesses::total         1610                       # number of SoftPFReq accesses(hits+misses)
system.cpu.dcache.SoftPFReq_miss_rate::.cpu.data     0.954037                       # miss rate for SoftPFReq accesses
system.cpu.dcache.SoftPFReq_miss_rate::total     0.954037                       # miss rate for SoftPFReq accesses
system.cpu.dcache.SoftPFReq_mshr_misses::.cpu.data         1536                       # number of SoftPFReq MSHR misses
system.cpu.dcache.SoftPFReq_mshr_misses::total         1536                       # number of SoftPFReq MSHR misses
system.cpu.dcache.SoftPFReq_mshr_miss_latency::.cpu.data    114586497                       # number of SoftPFReq MSHR miss cycles
system.cpu.dcache.SoftPFReq_mshr_miss_latency::total    114586497                       # number of SoftPFReq MSHR miss cycles
system.cpu.dcache.SoftPFReq_mshr_miss_rate::.cpu.data     0.954037                       # mshr miss rate for SoftPFReq accesses
system.cpu.dcache.SoftPFReq_mshr_miss_rate::total     0.954037                       # mshr miss rate for SoftPFReq accesses
system.cpu.dcache.SoftPFReq_avg_mshr_miss_latency::.cpu.data 74600.583984                       # average SoftPFReq mshr miss latency
system.cpu.dcache.SoftPFReq_avg_mshr_miss_latency::total 74600.583984                       # average SoftPFReq mshr miss latency
system.cpu.dcache.LoadLockedReq_hits::.cpu.data           37                       # number of LoadLockedReq hits
system.cpu.dcache.LoadLockedReq_hits::total           37                       # number of LoadLockedReq hits
system.cpu.dcache.LoadLockedReq_misses::.cpu.data            1                       # number of LoadLockedReq misses
system.cpu.dcache.LoadLockedReq_misses::total            1                       # number of LoadLockedReq misses
system.cpu.dcache.LoadLockedReq_miss_latency::.cpu.data        72500                       # number of LoadLockedReq miss cycles
system.cpu.dcache.LoadLockedReq_miss_latency::total        72500                       # number of LoadLockedReq miss cycles
system.cpu.dcache.LoadLockedReq_accesses::.cpu.data           38                       # number of LoadLockedReq accesses(hits+misses)
system.cpu.dcache.LoadLockedReq_accesses::total           38                       # number of LoadLockedReq accesses(hits+misses)
system.cpu.dcache.LoadLockedReq_miss_rate::.cpu.data     0.026316                       # miss rate for LoadLockedReq accesses
system.cpu.dcache.LoadLockedReq_miss_rate::total     0.026316                       # miss rate for LoadLockedReq accesses
system.cpu.dcache.LoadLockedReq_avg_miss_latency::.cpu.data        72500                       # average LoadLockedReq miss latency
system.cpu.dcache.LoadLockedReq_avg_miss_latency::total        72500                       # average LoadLockedReq miss latency
system.cpu.dcache.LoadLockedReq_mshr_misses::.cpu.data            1                       # number of LoadLockedReq MSHR misses
system.cpu.dcache.LoadLockedReq_mshr_misses::total            1                       # number of LoadLockedReq MSHR misses
system.cpu.dcache.LoadLockedReq_mshr_miss_latency::.cpu.data        71500                       # number of LoadLockedReq MSHR miss cycles
system.cpu.dcache.LoadLockedReq_mshr_miss_latency::total        71500                       # number of LoadLockedReq MSHR miss cycles
system.cpu.dcache.LoadLockedReq_mshr_miss_rate::.cpu.data     0.026316                       # mshr miss rate for LoadLockedReq accesses
system.cpu.dcache.LoadLockedReq_mshr_miss_rate::total     0.026316                       # mshr miss rate for LoadLockedReq accesses
system.cpu.dcache.LoadLockedReq_avg_mshr_miss_latency::.cpu.data        71500                       # average LoadLockedReq mshr miss latency
system.cpu.dcache.LoadLockedReq_avg_mshr_miss_latency::total        71500                       # average LoadLockedReq mshr miss latency
system.cpu.dcache.StoreCondReq_hits::.cpu.data           38                       # number of StoreCondReq hits
system.cpu.dcache.StoreCondReq_hits::total           38                       # number of StoreCondReq hits
system.cpu.dcache.StoreCondReq_accesses::.cpu.data           38                       # number of StoreCondReq accesses(hits+misses)
system.cpu.dcache.StoreCondReq_accesses::total           38                       # number of StoreCondReq accesses(hits+misses)
system.cpu.dcache.tags.pwrStateResidencyTicks::UNDEFINED  19333944500                       # Cumulative time (in ticks) in various power states
system.cpu.dcache.tags.tagsinuse           957.892010                       # Cycle average of tags in use
system.cpu.dcache.tags.total_refs             7067972                       # Total number of references to valid blocks.
system.cpu.dcache.tags.sampled_refs            202408                       # Sample count of references to valid blocks.
system.cpu.dcache.tags.avg_refs             34.919430                       # Average number of references to valid blocks.
system.cpu.dcache.tags.warmup_cycle            176500                       # Cycle when the warmup percentage was hit.
system.cpu.dcache.tags.occ_blocks::.cpu.data   957.892010                       # Average occupied blocks per requestor
system.cpu.dcache.tags.occ_percent::.cpu.data     0.935441                       # Average percentage of cache occupancy
system.cpu.dcache.tags.occ_percent::total     0.935441                       # Average percentage of cache occupancy
system.cpu.dcache.tags.occ_task_id_blocks::1024         1024                       # Occupied blocks per task id
system.cpu.dcache.tags.age_task_id_blocks_1024::0            5                       # Occupied blocks per task id
system.cpu.dcache.tags.age_task_id_blocks_1024::1           38                       # Occupied blocks per task id
system.cpu.dcache.tags.age_task_id_blocks_1024::2          686                       # Occupied blocks per task id
system.cpu.dcache.tags.age_task_id_blocks_1024::3          295                       # Occupied blocks per task id
system.cpu.dcache.tags.occ_task_id_percent::1024            1                       # Percentage of cache occupancy per task id
system.cpu.dcache.tags.tag_accesses           7347663                       # Number of tag accesses
system.cpu.dcache.tags.data_accesses          7347663                       # Number of data accesses
system.cpu.itb.walker.pwrStateResidencyTicks::UNDEFINED  19333944500                       # Cumulative time (in ticks) in various power states
system.cpu.itb.stage2_mmu.stage2_tlb.walker.pwrStateResidencyTicks::UNDEFINED  19333944500                       # Cumulative time (in ticks) in various power states

---------- End Simulation Statistics   ----------
