
---------- Begin Simulation Statistics ----------
final_tick                                19309314500                       # Number of ticks from beginning of simulation (restored from checkpoints and never reset)
host_inst_rate                                 263769                       # Simulator instruction rate (inst/s)
host_mem_usage                                 698076                       # Number of bytes of host memory used
host_op_rate                                   264514                       # Simulator op (including micro ops) rate (op/s)
host_seconds                                    37.91                       # Real time elapsed on the host
host_tick_rate                              509317354                       # Simulator tick rate (ticks/s)
sim_freq                                 1000000000000                       # Frequency of simulated ticks
sim_insts                                    10000000                       # Number of instructions simulated
sim_ops                                      10028308                       # Number of ops (including micro ops) simulated
sim_seconds                                  0.019309                       # Number of seconds simulated
sim_ticks                                 19309314500                       # Number of ticks simulated
system.cpu.branchPred.BTBCorrect                    0                       # Number of correct BTB predictions (this stat may not work properly.
system.cpu.branchPred.BTBHitPct             98.890557                       # BTB Hit Percentage
system.cpu.branchPred.BTBHits                  300297                       # Number of BTB hits
system.cpu.branchPred.BTBLookups               303666                       # Number of BTB lookups
system.cpu.branchPred.RASInCorrect                  5                       # Number of incorrect RAS predictions.
system.cpu.branchPred.condIncorrect              7162                       # Number of conditional branches incorrect
system.cpu.branchPred.condPredicted            603719                       # Number of conditional branches predicted
system.cpu.branchPred.indirectHits                128                       # Number of indirect target hits.
system.cpu.branchPred.indirectLookups             381                       # Number of indirect predictor lookups.
system.cpu.branchPred.indirectMisses              253                       # Number of indirect misses.
system.cpu.branchPred.lookups                  716511                       # Number of BP lookups
system.cpu.branchPred.usedRAS                    6927                       # Number of times the RAS was used to get a target.
system.cpu.branchPredindirectMispredicted          171                       # Number of mispredicted indirect branches.
system.cpu.committedInsts                    10000000                       # Number of instructions committed
system.cpu.committedOps                      10028308                       # Number of ops (including micro ops) committed
system.cpu.cpi                               3.861863                       # CPI: cycles per instruction
system.cpu.discardedOps                         15333                       # Number of ops (including micro ops) which were discarded before commit
system.cpu.dtb.accesses                             0                       # DTB accesses
system.cpu.dtb.align_faults                         0                       # Number of TLB faults due to alignment restrictions
system.cpu.dtb.domain_faults                        0                       # Number of TLB faults due to domain restrictions
system.cpu.dtb.flush_entries                        0                       # Number of entries that have been flushed from TLB
system.cpu.dtb.flush_tlb                            0                       # Number of times complete TLB was flushed
system.cpu.dtb.flush_tlb_asid                       0                       # Number of times TLB was flushed by ASID
system.cpu.dtb.flush_tlb_mva                        0                       # Number of times TLB was flushed by MVA
system.cpu.dtb.flush_tlb_mva_asid                   0                       # Number of times TLB was flushed by MVA & ASID
system.cpu.dtb.hits                                 0                       # DTB hits
system.cpu.dtb.inst_accesses                        0                       # ITB inst accesses
system.cpu.dtb.inst_hits                            0                       # ITB inst hits
system.cpu.dtb.inst_misses                          0                       # ITB inst misses
system.cpu.dtb.misses                               0                       # DTB misses
system.cpu.dtb.perms_faults                         0                       # Number of TLB faults due to permissions restrictions
system.cpu.dtb.prefetch_faults                      0                       # Number of TLB faults due to prefetch
system.cpu.dtb.read_accesses                        0                       # DTB read accesses
system.cpu.dtb.read_hits                            0                       # DTB read hits
system.cpu.dtb.read_misses                          0                       # DTB read misses
system.cpu.dtb.stage2_mmu.stage2_tlb.accesses            0                       # DTB accesses
system.cpu.dtb.stage2_mmu.stage2_tlb.align_faults            0                       # Number of TLB faults due to alignment restrictions
system.cpu.dtb.stage2_mmu.stage2_tlb.domain_faults            0                       # Number of TLB faults due to domain restrictions
system.cpu.dtb.stage2_mmu.stage2_tlb.flush_entries            0                       # Number of entries that have been flushed from TLB
system.cpu.dtb.stage2_mmu.stage2_tlb.flush_tlb            0                       # Number of times complete TLB was flushed
system.cpu.dtb.stage2_mmu.stage2_tlb.flush_tlb_asid            0                       # Number of times TLB was flushed by ASID
system.cpu.dtb.stage2_mmu.stage2_tlb.flush_tlb_mva            0                       # Number of times TLB was flushed by MVA
system.cpu.dtb.stage2_mmu.stage2_tlb.flush_tlb_mva_asid            0                       # Number of times TLB was flushed by MVA & ASID
system.cpu.dtb.stage2_mmu.stage2_tlb.hits            0                       # DTB hits
system.cpu.dtb.stage2_mmu.stage2_tlb.inst_accesses            0                       # ITB inst accesses
system.cpu.dtb.stage2_mmu.stage2_tlb.inst_hits            0                       # ITB inst hits
system.cpu.dtb.stage2_mmu.stage2_tlb.inst_misses            0                       # ITB inst misses
system.cpu.dtb.stage2_mmu.stage2_tlb.misses            0                       # DTB misses
system.cpu.dtb.stage2_mmu.stage2_tlb.perms_faults            0                       # Number of TLB faults due to permissions restrictions
system.cpu.dtb.stage2_mmu.stage2_tlb.prefetch_faults            0                       # Number of TLB faults due to prefetch
system.cpu.dtb.stage2_mmu.stage2_tlb.read_accesses            0                       # DTB read accesses
system.cpu.dtb.stage2_mmu.stage2_tlb.read_hits            0                       # DTB read hits
system.cpu.dtb.stage2_mmu.stage2_tlb.read_misses            0                       # DTB read misses
system.cpu.dtb.stage2_mmu.stage2_tlb.walker.walkRequestOrigin_Requested::Data            0                       # Table walker requests started/completed, data/inst
system.cpu.dtb.stage2_mmu.stage2_tlb.walker.walkRequestOrigin_Requested::Inst            0                       # Table walker requests started/completed, data/inst
system.cpu.dtb.stage2_mmu.stage2_tlb.walker.walkRequestOrigin_Requested::total            0                       # Table walker requests started/completed, data/inst
system.cpu.dtb.stage2_mmu.stage2_tlb.walker.walkRequestOrigin_Completed::Data            0                       # Table walker requests started/completed, data/inst
system.cpu.dtb.stage2_mmu.stage2_tlb.walker.walkRequestOrigin_Completed::Inst            0                       # Table walker requests started/completed, data/inst
system.cpu.dtb.stage2_mmu.stage2_tlb.walker.walkRequestOrigin_Completed::total            0                       # Table walker requests started/completed, data/inst
system.cpu.dtb.stage2_mmu.stage2_tlb.walker.walkRequestOrigin::total            0                       # Table walker requests started/completed, data/inst
system.cpu.dtb.stage2_mmu.stage2_tlb.walker.walks            0                       # Table walker walks requested
system.cpu.dtb.stage2_mmu.stage2_tlb.write_accesses            0                       # DTB write accesses
system.cpu.dtb.stage2_mmu.stage2_tlb.write_hits            0                       # DTB write hits
system.cpu.dtb.stage2_mmu.stage2_tlb.write_misses            0                       # DTB write misses
system.cpu.dtb.walker.walkRequestOrigin_Requested::Data            0                       # Table walker requests started/completed, data/inst
system.cpu.dtb.walker.walkRequestOrigin_Requested::Inst            0                       # Table walker requests started/completed, data/inst
system.cpu.dtb.walker.walkRequestOrigin_Requested::total            0                       # Table walker requests started/completed, data/inst
system.cpu.dtb.walker.walkRequestOrigin_Completed::Data            0                       # Table walker requests started/completed, data/inst
system.cpu.dtb.walker.walkRequestOrigin_Completed::Inst            0                       # Table walker requests started/completed, data/inst
system.cpu.dtb.walker.walkRequestOrigin_Completed::total            0                       # Table walker requests started/completed, data/inst
system.cpu.dtb.walker.walkRequestOrigin::total            0                       # Table walker requests started/completed, data/inst
system.cpu.dtb.walker.walks                         0                       # Table walker walks requested
system.cpu.dtb.write_accesses                       0                       # DTB write accesses
system.cpu.dtb.write_hits                           0                       # DTB write hits
system.cpu.dtb.write_misses                         0                       # DTB write misses
system.cpu.fetch2.amo_instructions                  0                       # Number of memory atomic instructions successfully decoded
system.cpu.fetch2.fp_instructions                   0                       # Number of floating point instructions successfully decoded
system.cpu.fetch2.int_instructions            2168611                       # Number of integer instructions successfully decoded
system.cpu.fetch2.load_instructions           5800737                       # Number of memory load instructions successfully decoded
system.cpu.fetch2.store_instructions          1454234                       # Number of memory store instructions successfully decoded
system.cpu.fetch2.vec_instructions                  0                       # Number of SIMD instructions successfully decoded
system.cpu.idleCycles                        23881864                       # Total number of cycles that the object has spent stopped
system.cpu.ipc                               0.258942                       # IPC: instructions per cycle
system.cpu.itb.accesses                             0                       # DTB accesses
system.cpu.itb.align_faults                         0                       # Number of TLB faults due to alignment restrictions
system.cpu.itb.domain_faults                        0                       # Number of TLB faults due to domain restrictions
system.cpu.itb.flush_entries                        0                       # Number of entries that have been flushed from TLB
system.cpu.itb.flush_tlb                            0                       # Number of times complete TLB was flushed
system.cpu.itb.flush_tlb_asid                       0                       # Number of times TLB was flushed by ASID
system.cpu.itb.flush_tlb_mva                        0                       # Number of times TLB was flushed by MVA
system.cpu.itb.flush_tlb_mva_asid                   0                       # Number of times TLB was flushed by MVA & ASID
system.cpu.itb.hits                                 0                       # DTB hits
system.cpu.itb.inst_accesses                        0                       # ITB inst accesses
system.cpu.itb.inst_hits                            0                       # ITB inst hits
system.cpu.itb.inst_misses                          0                       # ITB inst misses
system.cpu.itb.misses                               0                       # DTB misses
system.cpu.itb.perms_faults                         0                       # Number of TLB faults due to permissions restrictions
system.cpu.itb.prefetch_faults                      0                       # Number of TLB faults due to prefetch
system.cpu.itb.read_accesses                        0                       # DTB read accesses
system.cpu.itb.read_hits                            0                       # DTB read hits
system.cpu.itb.read_misses                          0                       # DTB read misses
system.cpu.itb.stage2_mmu.stage2_tlb.accesses            0                       # DTB accesses
system.cpu.itb.stage2_mmu.stage2_tlb.align_faults            0                       # Number of TLB faults due to alignment restrictions
system.cpu.itb.stage2_mmu.stage2_tlb.domain_faults            0                       # Number of TLB faults due to domain restrictions
system.cpu.itb.stage2_mmu.stage2_tlb.flush_entries            0                       # Number of entries that have been flushed from TLB
system.cpu.itb.stage2_mmu.stage2_tlb.flush_tlb            0                       # Number of times complete TLB was flushed
system.cpu.itb.stage2_mmu.stage2_tlb.flush_tlb_asid            0                       # Number of times TLB was flushed by ASID
system.cpu.itb.stage2_mmu.stage2_tlb.flush_tlb_mva            0                       # Number of times TLB was flushed by MVA
system.cpu.itb.stage2_mmu.stage2_tlb.flush_tlb_mva_asid            0                       # Number of times TLB was flushed by MVA & ASID
system.cpu.itb.stage2_mmu.stage2_tlb.hits            0                       # DTB hits
system.cpu.itb.stage2_mmu.stage2_tlb.inst_accesses            0                       # ITB inst accesses
system.cpu.itb.stage2_mmu.stage2_tlb.inst_hits            0                       # ITB inst hits
system.cpu.itb.stage2_mmu.stage2_tlb.inst_misses            0                       # ITB inst misses
system.cpu.itb.stage2_mmu.stage2_tlb.misses            0                       # DTB misses
system.cpu.itb.stage2_mmu.stage2_tlb.perms_faults            0                       # Number of TLB faults due to permissions restrictions
system.cpu.itb.stage2_mmu.stage2_tlb.prefetch_faults            0                       # Number of TLB faults due to prefetch
system.cpu.itb.stage2_mmu.stage2_tlb.read_accesses            0                       # DTB read accesses
system.cpu.itb.stage2_mmu.stage2_tlb.read_hits            0                       # DTB read hits
system.cpu.itb.stage2_mmu.stage2_tlb.read_misses            0                       # DTB read misses
system.cpu.itb.stage2_mmu.stage2_tlb.walker.walkRequestOrigin_Requested::Data            0                       # Table walker requests started/completed, data/inst
system.cpu.itb.stage2_mmu.stage2_tlb.walker.walkRequestOrigin_Requested::Inst            0                       # Table walker requests started/completed, data/inst
system.cpu.itb.stage2_mmu.stage2_tlb.walker.walkRequestOrigin_Requested::total            0                       # Table walker requests started/completed, data/inst
system.cpu.itb.stage2_mmu.stage2_tlb.walker.walkRequestOrigin_Completed::Data            0                       # Table walker requests started/completed, data/inst
system.cpu.itb.stage2_mmu.stage2_tlb.walker.walkRequestOrigin_Completed::Inst            0                       # Table walker requests started/completed, data/inst
system.cpu.itb.stage2_mmu.stage2_tlb.walker.walkRequestOrigin_Completed::total            0                       # Table walker requests started/completed, data/inst
system.cpu.itb.stage2_mmu.stage2_tlb.walker.walkRequestOrigin::total            0                       # Table walker requests started/completed, data/inst
system.cpu.itb.stage2_mmu.stage2_tlb.walker.walks            0                       # Table walker walks requested
system.cpu.itb.stage2_mmu.stage2_tlb.write_accesses            0                       # DTB write accesses
system.cpu.itb.stage2_mmu.stage2_tlb.write_hits            0                       # DTB write hits
system.cpu.itb.stage2_mmu.stage2_tlb.write_misses            0                       # DTB write misses
system.cpu.itb.walker.walkRequestOrigin_Requested::Data            0                       # Table walker requests started/completed, data/inst
system.cpu.itb.walker.walkRequestOrigin_Requested::Inst            0                       # Table walker requests started/completed, data/inst
system.cpu.itb.walker.walkRequestOrigin_Requested::total            0                       # Table walker requests started/completed, data/inst
system.cpu.itb.walker.walkRequestOrigin_Completed::Data            0                       # Table walker requests started/completed, data/inst
system.cpu.itb.walker.walkRequestOrigin_Completed::Inst            0                       # Table walker requests started/completed, data/inst
system.cpu.itb.walker.walkRequestOrigin_Completed::total            0                       # Table walker requests started/completed, data/inst
system.cpu.itb.walker.walkRequestOrigin::total            0                       # Table walker requests started/completed, data/inst
system.cpu.itb.walker.walks                         0                       # Table walker walks requested
system.cpu.itb.write_accesses                       0                       # DTB write accesses
system.cpu.itb.write_hits                           0                       # DTB write hits
system.cpu.itb.write_misses                         0                       # DTB write misses
system.cpu.numCycles                         38618629                       # number of cpu cycles simulated
system.cpu.numFetchSuspends                         0                       # Number of times Execute suspended instruction fetching
system.cpu.numWorkItemsCompleted                    0                       # number of work items this cpu completed
system.cpu.numWorkItemsStarted                      0                       # number of work items this cpu started
system.cpu.op_class_0::No_OpClass                   0      0.00%      0.00% # Class of committed instruction
system.cpu.op_class_0::IntAlu                 2830128     28.22%     28.22% # Class of committed instruction
system.cpu.op_class_0::IntMult                  20549      0.20%     28.43% # Class of committed instruction
system.cpu.op_class_0::IntDiv                       0      0.00%     28.43% # Class of committed instruction
system.cpu.op_class_0::FloatAdd                     0      0.00%     28.43% # Class of committed instruction
system.cpu.op_class_0::FloatCmp                     0      0.00%     28.43% # Class of committed instruction
system.cpu.op_class_0::FloatCvt                     0      0.00%     28.43% # Class of committed instruction
system.cpu.op_class_0::FloatMult                    0      0.00%     28.43% # Class of committed instruction
system.cpu.op_class_0::FloatMultAcc                 0      0.00%     28.43% # Class of committed instruction
system.cpu.op_class_0::FloatDiv                     0      0.00%     28.43% # Class of committed instruction
system.cpu.op_class_0::FloatMisc                    0      0.00%     28.43% # Class of committed instruction
system.cpu.op_class_0::FloatSqrt                    0      0.00%     28.43% # Class of committed instruction
system.cpu.op_class_0::SimdAdd                      0      0.00%     28.43% # Class of committed instruction
system.cpu.op_class_0::SimdAddAcc                   0      0.00%     28.43% # Class of committed instruction
system.cpu.op_class_0::SimdAlu                      0      0.00%     28.43% # Class of committed instruction
system.cpu.op_class_0::SimdCmp                      0      0.00%     28.43% # Class of committed instruction
system.cpu.op_class_0::SimdCvt                      0      0.00%     28.43% # Class of committed instruction
system.cpu.op_class_0::SimdMisc                     0      0.00%     28.43% # Class of committed instruction
system.cpu.op_class_0::SimdMult                     0      0.00%     28.43% # Class of committed instruction
system.cpu.op_class_0::SimdMultAcc                  0      0.00%     28.43% # Class of committed instruction
system.cpu.op_class_0::SimdShift                    0      0.00%     28.43% # Class of committed instruction
system.cpu.op_class_0::SimdShiftAcc                 0      0.00%     28.43% # Class of committed instruction
system.cpu.op_class_0::SimdDiv                      0      0.00%     28.43% # Class of committed instruction
system.cpu.op_class_0::SimdSqrt                     0      0.00%     28.43% # Class of committed instruction
system.cpu.op_class_0::SimdFloatAdd                 0      0.00%     28.43% # Class of committed instruction
system.cpu.op_class_0::SimdFloatAlu                 0      0.00%     28.43% # Class of committed instruction
system.cpu.op_class_0::SimdFloatCmp                 0      0.00%     28.43% # Class of committed instruction
system.cpu.op_class_0::SimdFloatCvt                 0      0.00%     28.43% # Class of committed instruction
system.cpu.op_class_0::SimdFloatDiv                 0      0.00%     28.43% # Class of committed instruction
system.cpu.op_class_0::SimdFloatMisc               18      0.00%     28.43% # Class of committed instruction
system.cpu.op_class_0::SimdFloatMult                0      0.00%     28.43% # Class of committed instruction
system.cpu.op_class_0::SimdFloatMultAcc             0      0.00%     28.43% # Class of committed instruction
system.cpu.op_class_0::SimdFloatSqrt                0      0.00%     28.43% # Class of committed instruction
system.cpu.op_class_0::SimdReduceAdd                0      0.00%     28.43% # Class of committed instruction
system.cpu.op_class_0::SimdReduceAlu                0      0.00%     28.43% # Class of committed instruction
system.cpu.op_class_0::SimdReduceCmp                0      0.00%     28.43% # Class of committed instruction
system.cpu.op_class_0::SimdFloatReduceAdd            0      0.00%     28.43% # Class of committed instruction
system.cpu.op_class_0::SimdFloatReduceCmp            0      0.00%     28.43% # Class of committed instruction
system.cpu.op_class_0::SimdAes                      0      0.00%     28.43% # Class of committed instruction
system.cpu.op_class_0::SimdAesMix                   0      0.00%     28.43% # Class of committed instruction
system.cpu.op_class_0::SimdSha1Hash                 0      0.00%     28.43% # Class of committed instruction
system.cpu.op_class_0::SimdSha1Hash2                0      0.00%     28.43% # Class of committed instruction
system.cpu.op_class_0::SimdSha256Hash               0      0.00%     28.43% # Class of committed instruction
system.cpu.op_class_0::SimdSha256Hash2              0      0.00%     28.43% # Class of committed instruction
system.cpu.op_class_0::SimdShaSigma2                0      0.00%     28.43% # Class of committed instruction
system.cpu.op_class_0::SimdShaSigma3                0      0.00%     28.43% # Class of committed instruction
system.cpu.op_class_0::SimdPredAlu                  0      0.00%     28.43% # Class of committed instruction
system.cpu.op_class_0::MemRead                5721911     57.06%     85.48% # Class of committed instruction
system.cpu.op_class_0::MemWrite               1455702     14.52%    100.00% # Class of committed instruction
system.cpu.op_class_0::FloatMemRead                 0      0.00%    100.00% # Class of committed instruction
system.cpu.op_class_0::FloatMemWrite                0      0.00%    100.00% # Class of committed instruction
system.cpu.op_class_0::IprAccess                    0      0.00%    100.00% # Class of committed instruction
system.cpu.op_class_0::InstPrefetch                 0      0.00%    100.00% # Class of committed instruction
system.cpu.op_class_0::total                 10028308                       # Class of committed instruction
system.cpu.tickCycles                        14736765                       # Number of cycles that the object actually ticked
system.cpu.workload.numSyscalls                    84                       # Number of system calls
system.membus.snoop_filter.hit_multi_requests            0                       # Number of requests hitting in the snoop filter with multiple (>1) holders of the requested data.
system.membus.snoop_filter.hit_multi_snoops            0                       # Number of snoops hitting in the snoop filter with multiple (>1) holders of the requested data.
system.membus.snoop_filter.hit_single_requests       182142                       # Number of requests hitting in the snoop filter with a single holder of the requested data.
system.membus.snoop_filter.hit_single_snoops            0                       # Number of snoops hitting in the snoop filter with a single holder of the requested data.
system.membus.snoop_filter.tot_requests        381162                       # Total number of requests made to the snoop filter.
system.membus.snoop_filter.tot_snoops               0                       # Total number of snoops made to the snoop filter.
system.tol2bus.snoop_filter.hit_multi_requests          220                       # Number of requests hitting in the snoop filter with multiple (>1) holders of the requested data.
system.tol2bus.snoop_filter.hit_multi_snoops            0                       # Number of snoops hitting in the snoop filter with multiple (>1) holders of the requested data.
system.tol2bus.snoop_filter.hit_single_requests       201620                       # Number of requests hitting in the snoop filter with a single holder of the requested data.
system.tol2bus.snoop_filter.hit_single_snoops          562                       # Number of snoops hitting in the snoop filter with a single holder of the requested data.
system.tol2bus.snoop_filter.tot_requests       404923                       # Total number of requests made to the snoop filter.
system.tol2bus.snoop_filter.tot_snoops            562                       # Total number of snoops made to the snoop filter.
system.membus.pwrStateResidencyTicks::UNDEFINED  19309314500                       # Cumulative time (in ticks) in various power states
system.membus.trans_dist::ReadResp              89298                       # Transaction distribution
system.membus.trans_dist::WritebackDirty       105188                       # Transaction distribution
system.membus.trans_dist::CleanEvict            76950                       # Transaction distribution
system.membus.trans_dist::ReadExReq            109726                       # Transaction distribution
system.membus.trans_dist::ReadExResp           109726                       # Transaction distribution
system.membus.trans_dist::ReadSharedReq         89298                       # Transaction distribution
system.membus.pkt_count_system.l2.mem_side::system.mem_ctrls.port       580186                       # Packet count per connected master and slave (bytes)
system.membus.pkt_count::total                 580186                       # Packet count per connected master and slave (bytes)
system.membus.pkt_size_system.l2.mem_side::system.mem_ctrls.port      9734784                       # Cumulative packet size per connected master and slave (bytes)
system.membus.pkt_size::total                 9734784                       # Cumulative packet size per connected master and slave (bytes)
system.membus.snoops                                0                       # Total snoops (count)
system.membus.snoopTraffic                          0                       # Total snoop traffic (bytes)
system.membus.snoop_fanout::samples            199024                       # Request fanout histogram
system.membus.snoop_fanout::mean                    0                       # Request fanout histogram
system.membus.snoop_fanout::stdev                   0                       # Request fanout histogram
system.membus.snoop_fanout::underflows              0      0.00%      0.00% # Request fanout histogram
system.membus.snoop_fanout::0                  199024    100.00%    100.00% # Request fanout histogram
system.membus.snoop_fanout::1                       0      0.00%    100.00% # Request fanout histogram
system.membus.snoop_fanout::overflows               0      0.00%    100.00% # Request fanout histogram
system.membus.snoop_fanout::min_value               0                       # Request fanout histogram
system.membus.snoop_fanout::max_value               0                       # Request fanout histogram
system.membus.snoop_fanout::total              199024                       # Request fanout histogram
system.membus.respLayer1.occupancy          657598250                       # Layer occupancy (ticks)
system.membus.respLayer1.utilization              3.4                       # Layer utilization (%)
system.membus.reqLayer0.occupancy           654775000                       # Layer occupancy (ticks)
system.membus.reqLayer0.utilization               3.4                       # Layer utilization (%)
system.tol2bus.pwrStateResidencyTicks::UNDEFINED  19309314500                       # Cumulative time (in ticks) in various power states
system.tol2bus.trans_dist::ReadResp             91715                       # Transaction distribution
system.tol2bus.trans_dist::WritebackDirty       217639                       # Transaction distribution
system.tol2bus.trans_dist::WritebackClean          229                       # Transaction distribution
system.tol2bus.trans_dist::CleanEvict          166445                       # Transaction distribution
system.tol2bus.trans_dist::ReadExReq           111579                       # Transaction distribution
system.tol2bus.trans_dist::ReadExResp          111579                       # Transaction distribution
system.tol2bus.trans_dist::ReadCleanReq           902                       # Transaction distribution
system.tol2bus.trans_dist::ReadSharedReq        90813                       # Transaction distribution
system.tol2bus.trans_dist::InvalidateReq           16                       # Transaction distribution
system.tol2bus.trans_dist::InvalidateResp           16                       # Transaction distribution
system.tol2bus.pkt_count_system.cpu.icache.mem_side::system.l2.cpu_side         2033                       # Packet count per connected master and slave (bytes)
system.tol2bus.pkt_count_system.cpu.dcache.mem_side::system.l2.cpu_side       606200                       # Packet count per connected master and slave (bytes)
system.tol2bus.pkt_count::total                608233                       # Packet count per connected master and slave (bytes)
system.tol2bus.pkt_size_system.cpu.icache.mem_side::system.l2.cpu_side        36192                       # Cumulative packet size per connected master and slave (bytes)
system.tol2bus.pkt_size_system.cpu.dcache.mem_side::system.l2.cpu_side     10074976                       # Cumulative packet size per connected master and slave (bytes)
system.tol2bus.pkt_size::total               10111168                       # Cumulative packet size per connected master and slave (bytes)
system.tol2bus.snoops                          182700                       # Total snoops (count)
system.tol2bus.snoopTraffic                   3366016                       # Total snoop traffic (bytes)
system.tol2bus.snoop_fanout::samples           386010                       # Request fanout histogram
system.tol2bus.snoop_fanout::mean            0.002044                       # Request fanout histogram
system.tol2bus.snoop_fanout::stdev           0.045164                       # Request fanout histogram
system.tol2bus.snoop_fanout::underflows             0      0.00%      0.00% # Request fanout histogram
system.tol2bus.snoop_fanout::0                 385221     99.80%     99.80% # Request fanout histogram
system.tol2bus.snoop_fanout::1                    789      0.20%    100.00% # Request fanout histogram
system.tol2bus.snoop_fanout::2                      0      0.00%    100.00% # Request fanout histogram
system.tol2bus.snoop_fanout::overflows              0      0.00%    100.00% # Request fanout histogram
system.tol2bus.snoop_fanout::min_value              0                       # Request fanout histogram
system.tol2bus.snoop_fanout::max_value              1                       # Request fanout histogram
system.tol2bus.snoop_fanout::total             386010                       # Request fanout histogram
system.tol2bus.reqLayer0.occupancy          258801500                       # Layer occupancy (ticks)
system.tol2bus.reqLayer0.utilization              1.3                       # Layer utilization (%)
system.tol2bus.respLayer1.occupancy         202401497                       # Layer occupancy (ticks)
system.tol2bus.respLayer1.utilization             1.0                       # Layer utilization (%)
system.tol2bus.respLayer0.occupancy            902000                       # Layer occupancy (ticks)
system.tol2bus.respLayer0.utilization             0.0                       # Layer utilization (%)
system.voltage_domain.voltage                       1                       # Voltage in Volts
system.clk_domain.clock                          1000                       # Clock period in ticks
system.l2.pwrStateResidencyTicks::UNDEFINED  19309314500                       # Cumulative time (in ticks) in various power states
system.l2.demand_hits::.cpu.inst                   89                       # number of demand (read+write) hits
system.l2.demand_hits::.cpu.data                 4178                       # number of demand (read+write) hits
system.l2.demand_hits::total                     4267                       # number of demand (read+write) hits
system.l2.overall_hits::.cpu.inst                  89                       # number of overall hits
system.l2.overall_hits::.cpu.data                4178                       # number of overall hits
system.l2.overall_hits::total                    4267                       # number of overall hits
system.l2.demand_misses::.cpu.inst                813                       # number of demand (read+write) misses
system.l2.demand_misses::.cpu.data             198214                       # number of demand (read+write) misses
system.l2.demand_misses::total                 199027                       # number of demand (read+write) misses
system.l2.overall_misses::.cpu.inst               813                       # number of overall misses
system.l2.overall_misses::.cpu.data            198214                       # number of overall misses
system.l2.overall_misses::total                199027                       # number of overall misses
system.l2.demand_miss_latency::.cpu.inst     62723500                       # number of demand (read+write) miss cycles
system.l2.demand_miss_latency::.cpu.data  15461899000                       # number of demand (read+write) miss cycles
system.l2.demand_miss_latency::total      15524622500                       # number of demand (read+write) miss cycles
system.l2.overall_miss_latency::.cpu.inst     62723500                       # number of overall miss cycles
system.l2.overall_miss_latency::.cpu.data  15461899000                       # number of overall miss cycles
system.l2.overall_miss_latency::total     15524622500                       # number of overall miss cycles
system.l2.demand_accesses::.cpu.inst              902                       # number of demand (read+write) accesses
system.l2.demand_accesses::.cpu.data           202392                       # number of demand (read+write) accesses
system.l2.demand_accesses::total               203294                       # number of demand (read+write) accesses
system.l2.overall_accesses::.cpu.inst             902                       # number of overall (read+write) accesses
system.l2.overall_accesses::.cpu.data          202392                       # number of overall (read+write) accesses
system.l2.overall_accesses::total              203294                       # number of overall (read+write) accesses
system.l2.demand_miss_rate::.cpu.inst        0.901330                       # miss rate for demand accesses
system.l2.demand_miss_rate::.cpu.data        0.979357                       # miss rate for demand accesses
system.l2.demand_miss_rate::total            0.979011                       # miss rate for demand accesses
system.l2.overall_miss_rate::.cpu.inst       0.901330                       # miss rate for overall accesses
system.l2.overall_miss_rate::.cpu.data       0.979357                       # miss rate for overall accesses
system.l2.overall_miss_rate::total           0.979011                       # miss rate for overall accesses
system.l2.demand_avg_miss_latency::.cpu.inst 77150.676507                       # average overall miss latency
system.l2.demand_avg_miss_latency::.cpu.data 78006.089378                       # average overall miss latency
system.l2.demand_avg_miss_latency::total 78002.595125                       # average overall miss latency
system.l2.overall_avg_miss_latency::.cpu.inst 77150.676507                       # average overall miss latency
system.l2.overall_avg_miss_latency::.cpu.data 78006.089378                       # average overall miss latency
system.l2.overall_avg_miss_latency::total 78002.595125                       # average overall miss latency
system.l2.blocked_cycles::no_mshrs                  0                       # number of cycles access was blocked
system.l2.blocked_cycles::no_targets                0                       # number of cycles access was blocked
system.l2.blocked::no_mshrs                         0                       # number of cycles access was blocked
system.l2.blocked::no_targets                       0                       # number of cycles access was blocked
system.l2.avg_blocked_cycles::no_mshrs            nan                       # average number of cycles each access was blocked
system.l2.avg_blocked_cycles::no_targets          nan                       # average number of cycles each access was blocked
system.l2.writebacks::.writebacks              105188                       # number of writebacks
system.l2.writebacks::total                    105188                       # number of writebacks
system.l2.demand_mshr_hits::.cpu.data               3                       # number of demand (read+write) MSHR hits
system.l2.demand_mshr_hits::total                   3                       # number of demand (read+write) MSHR hits
system.l2.overall_mshr_hits::.cpu.data              3                       # number of overall MSHR hits
system.l2.overall_mshr_hits::total                  3                       # number of overall MSHR hits
system.l2.demand_mshr_misses::.cpu.inst           813                       # number of demand (read+write) MSHR misses
system.l2.demand_mshr_misses::.cpu.data        198211                       # number of demand (read+write) MSHR misses
system.l2.demand_mshr_misses::total            199024                       # number of demand (read+write) MSHR misses
system.l2.overall_mshr_misses::.cpu.inst          813                       # number of overall MSHR misses
system.l2.overall_mshr_misses::.cpu.data       198211                       # number of overall MSHR misses
system.l2.overall_mshr_misses::total           199024                       # number of overall MSHR misses
system.l2.demand_mshr_miss_latency::.cpu.inst     54593500                       # number of demand (read+write) MSHR miss cycles
system.l2.demand_mshr_miss_latency::.cpu.data  13479592000                       # number of demand (read+write) MSHR miss cycles
system.l2.demand_mshr_miss_latency::total  13534185500                       # number of demand (read+write) MSHR miss cycles
system.l2.overall_mshr_miss_latency::.cpu.inst     54593500                       # number of overall MSHR miss cycles
system.l2.overall_mshr_miss_latency::.cpu.data  13479592000                       # number of overall MSHR miss cycles
system.l2.overall_mshr_miss_latency::total  13534185500                       # number of overall MSHR miss cycles
system.l2.demand_mshr_miss_rate::.cpu.inst     0.901330                       # mshr miss rate for demand accesses
system.l2.demand_mshr_miss_rate::.cpu.data     0.979342                       # mshr miss rate for demand accesses
system.l2.demand_mshr_miss_rate::total       0.978996                       # mshr miss rate for demand accesses
system.l2.overall_mshr_miss_rate::.cpu.inst     0.901330                       # mshr miss rate for overall accesses
system.l2.overall_mshr_miss_rate::.cpu.data     0.979342                       # mshr miss rate for overall accesses
system.l2.overall_mshr_miss_rate::total      0.978996                       # mshr miss rate for overall accesses
system.l2.demand_avg_mshr_miss_latency::.cpu.inst 67150.676507                       # average overall mshr miss latency
system.l2.demand_avg_mshr_miss_latency::.cpu.data 68006.276140                       # average overall mshr miss latency
system.l2.demand_avg_mshr_miss_latency::total 68002.781072                       # average overall mshr miss latency
system.l2.overall_avg_mshr_miss_latency::.cpu.inst 67150.676507                       # average overall mshr miss latency
system.l2.overall_avg_mshr_miss_latency::.cpu.data 68006.276140                       # average overall mshr miss latency
system.l2.overall_avg_mshr_miss_latency::total 68002.781072                       # average overall mshr miss latency
system.l2.replacements                         182700                       # number of replacements
system.l2.WritebackDirty_hits::.writebacks       112451                       # number of WritebackDirty hits
system.l2.WritebackDirty_hits::total           112451                       # number of WritebackDirty hits
system.l2.WritebackDirty_accesses::.writebacks       112451                       # number of WritebackDirty accesses(hits+misses)
system.l2.WritebackDirty_accesses::total       112451                       # number of WritebackDirty accesses(hits+misses)
system.l2.WritebackClean_hits::.writebacks          221                       # number of WritebackClean hits
system.l2.WritebackClean_hits::total              221                       # number of WritebackClean hits
system.l2.WritebackClean_accesses::.writebacks          221                       # number of WritebackClean accesses(hits+misses)
system.l2.WritebackClean_accesses::total          221                       # number of WritebackClean accesses(hits+misses)
system.l2.ReadExReq_hits::.cpu.data              1853                       # number of ReadExReq hits
system.l2.ReadExReq_hits::total                  1853                       # number of ReadExReq hits
system.l2.ReadExReq_misses::.cpu.data          109726                       # number of ReadExReq misses
system.l2.ReadExReq_misses::total              109726                       # number of ReadExReq misses
system.l2.ReadExReq_miss_latency::.cpu.data   8704706500                       # number of ReadExReq miss cycles
system.l2.ReadExReq_miss_latency::total    8704706500                       # number of ReadExReq miss cycles
system.l2.ReadExReq_accesses::.cpu.data        111579                       # number of ReadExReq accesses(hits+misses)
system.l2.ReadExReq_accesses::total            111579                       # number of ReadExReq accesses(hits+misses)
system.l2.ReadExReq_miss_rate::.cpu.data     0.983393                       # miss rate for ReadExReq accesses
system.l2.ReadExReq_miss_rate::total         0.983393                       # miss rate for ReadExReq accesses
system.l2.ReadExReq_avg_miss_latency::.cpu.data 79331.302517                       # average ReadExReq miss latency
system.l2.ReadExReq_avg_miss_latency::total 79331.302517                       # average ReadExReq miss latency
system.l2.ReadExReq_mshr_misses::.cpu.data       109726                       # number of ReadExReq MSHR misses
system.l2.ReadExReq_mshr_misses::total         109726                       # number of ReadExReq MSHR misses
system.l2.ReadExReq_mshr_miss_latency::.cpu.data   7607446500                       # number of ReadExReq MSHR miss cycles
system.l2.ReadExReq_mshr_miss_latency::total   7607446500                       # number of ReadExReq MSHR miss cycles
system.l2.ReadExReq_mshr_miss_rate::.cpu.data     0.983393                       # mshr miss rate for ReadExReq accesses
system.l2.ReadExReq_mshr_miss_rate::total     0.983393                       # mshr miss rate for ReadExReq accesses
system.l2.ReadExReq_avg_mshr_miss_latency::.cpu.data 69331.302517                       # average ReadExReq mshr miss latency
system.l2.ReadExReq_avg_mshr_miss_latency::total 69331.302517                       # average ReadExReq mshr miss latency
system.l2.ReadCleanReq_hits::.cpu.inst             89                       # number of ReadCleanReq hits
system.l2.ReadCleanReq_hits::total                 89                       # number of ReadCleanReq hits
system.l2.ReadCleanReq_misses::.cpu.inst          813                       # number of ReadCleanReq misses
system.l2.ReadCleanReq_misses::total              813                       # number of ReadCleanReq misses
system.l2.ReadCleanReq_miss_latency::.cpu.inst     62723500                       # number of ReadCleanReq miss cycles
system.l2.ReadCleanReq_miss_latency::total     62723500                       # number of ReadCleanReq miss cycles
system.l2.ReadCleanReq_accesses::.cpu.inst          902                       # number of ReadCleanReq accesses(hits+misses)
system.l2.ReadCleanReq_accesses::total            902                       # number of ReadCleanReq accesses(hits+misses)
system.l2.ReadCleanReq_miss_rate::.cpu.inst     0.901330                       # miss rate for ReadCleanReq accesses
system.l2.ReadCleanReq_miss_rate::total      0.901330                       # miss rate for ReadCleanReq accesses
system.l2.ReadCleanReq_avg_miss_latency::.cpu.inst 77150.676507                       # average ReadCleanReq miss latency
system.l2.ReadCleanReq_avg_miss_latency::total 77150.676507                       # average ReadCleanReq miss latency
system.l2.ReadCleanReq_mshr_misses::.cpu.inst          813                       # number of ReadCleanReq MSHR misses
system.l2.ReadCleanReq_mshr_misses::total          813                       # number of ReadCleanReq MSHR misses
system.l2.ReadCleanReq_mshr_miss_latency::.cpu.inst     54593500                       # number of ReadCleanReq MSHR miss cycles
system.l2.ReadCleanReq_mshr_miss_latency::total     54593500                       # number of ReadCleanReq MSHR miss cycles
system.l2.ReadCleanReq_mshr_miss_rate::.cpu.inst     0.901330                       # mshr miss rate for ReadCleanReq accesses
system.l2.ReadCleanReq_mshr_miss_rate::total     0.901330                       # mshr miss rate for ReadCleanReq accesses
system.l2.ReadCleanReq_avg_mshr_miss_latency::.cpu.inst 67150.676507                       # average ReadCleanReq mshr miss latency
system.l2.ReadCleanReq_avg_mshr_miss_latency::total 67150.676507                       # average ReadCleanReq mshr miss latency
system.l2.ReadSharedReq_hits::.cpu.data          2325                       # number of ReadSharedReq hits
system.l2.ReadSharedReq_hits::total              2325                       # number of ReadSharedReq hits
system.l2.ReadSharedReq_misses::.cpu.data        88488                       # number of ReadSharedReq misses
system.l2.ReadSharedReq_misses::total           88488                       # number of ReadSharedReq misses
system.l2.ReadSharedReq_miss_latency::.cpu.data   6757192500                       # number of ReadSharedReq miss cycles
system.l2.ReadSharedReq_miss_latency::total   6757192500                       # number of ReadSharedReq miss cycles
system.l2.ReadSharedReq_accesses::.cpu.data        90813                       # number of ReadSharedReq accesses(hits+misses)
system.l2.ReadSharedReq_accesses::total         90813                       # number of ReadSharedReq accesses(hits+misses)
system.l2.ReadSharedReq_miss_rate::.cpu.data     0.974398                       # miss rate for ReadSharedReq accesses
system.l2.ReadSharedReq_miss_rate::total     0.974398                       # miss rate for ReadSharedReq accesses
system.l2.ReadSharedReq_avg_miss_latency::.cpu.data 76362.811907                       # average ReadSharedReq miss latency
system.l2.ReadSharedReq_avg_miss_latency::total 76362.811907                       # average ReadSharedReq miss latency
system.l2.ReadSharedReq_mshr_hits::.cpu.data            3                       # number of ReadSharedReq MSHR hits
system.l2.ReadSharedReq_mshr_hits::total            3                       # number of ReadSharedReq MSHR hits
system.l2.ReadSharedReq_mshr_misses::.cpu.data        88485                       # number of ReadSharedReq MSHR misses
system.l2.ReadSharedReq_mshr_misses::total        88485                       # number of ReadSharedReq MSHR misses
system.l2.ReadSharedReq_mshr_miss_latency::.cpu.data   5872145500                       # number of ReadSharedReq MSHR miss cycles
system.l2.ReadSharedReq_mshr_miss_latency::total   5872145500                       # number of ReadSharedReq MSHR miss cycles
system.l2.ReadSharedReq_mshr_miss_rate::.cpu.data     0.974365                       # mshr miss rate for ReadSharedReq accesses
system.l2.ReadSharedReq_mshr_miss_rate::total     0.974365                       # mshr miss rate for ReadSharedReq accesses
system.l2.ReadSharedReq_avg_mshr_miss_latency::.cpu.data 66363.174549                       # average ReadSharedReq mshr miss latency
system.l2.ReadSharedReq_avg_mshr_miss_latency::total 66363.174549                       # average ReadSharedReq mshr miss latency
system.l2.InvalidateReq_hits::.cpu.data            16                       # number of InvalidateReq hits
system.l2.InvalidateReq_hits::total                16                       # number of InvalidateReq hits
system.l2.InvalidateReq_accesses::.cpu.data           16                       # number of InvalidateReq accesses(hits+misses)
system.l2.InvalidateReq_accesses::total            16                       # number of InvalidateReq accesses(hits+misses)
system.l2.tags.pwrStateResidencyTicks::UNDEFINED  19309314500                       # Cumulative time (in ticks) in various power states
system.l2.tags.tagsinuse                 14720.846628                       # Cycle average of tags in use
system.l2.tags.total_refs                      404700                       # Total number of references to valid blocks.
system.l2.tags.sampled_refs                    199100                       # Sample count of references to valid blocks.
system.l2.tags.avg_refs                      2.032647                       # Average number of references to valid blocks.
system.l2.tags.warmup_cycle                     77000                       # Cycle when the warmup percentage was hit.
system.l2.tags.occ_blocks::.writebacks      19.970422                       # Average occupied blocks per requestor
system.l2.tags.occ_blocks::.cpu.inst       130.174320                       # Average occupied blocks per requestor
system.l2.tags.occ_blocks::.cpu.data     14570.701886                       # Average occupied blocks per requestor
system.l2.tags.occ_percent::.writebacks      0.001219                       # Average percentage of cache occupancy
system.l2.tags.occ_percent::.cpu.inst        0.007945                       # Average percentage of cache occupancy
system.l2.tags.occ_percent::.cpu.data        0.889325                       # Average percentage of cache occupancy
system.l2.tags.occ_percent::total            0.898489                       # Average percentage of cache occupancy
system.l2.tags.occ_task_id_blocks::1024         16384                       # Occupied blocks per task id
system.l2.tags.age_task_id_blocks_1024::0            4                       # Occupied blocks per task id
system.l2.tags.age_task_id_blocks_1024::1           38                       # Occupied blocks per task id
system.l2.tags.age_task_id_blocks_1024::2          671                       # Occupied blocks per task id
system.l2.tags.age_task_id_blocks_1024::3        15671                       # Occupied blocks per task id
system.l2.tags.occ_task_id_percent::1024            1                       # Percentage of cache occupancy per task id
system.l2.tags.tag_accesses                   1817912                       # Number of tag accesses
system.l2.tags.data_accesses                  1817912                       # Number of data accesses
system.cpu_voltage_domain.voltage                   1                       # Voltage in Volts
system.mem_ctrls.pwrStateResidencyTicks::UNDEFINED  19309314500                       # Cumulative time (in ticks) in various power states
system.mem_ctrls.bytes_read::.cpu.inst          26016                       # Number of bytes read from this memory
system.mem_ctrls.bytes_read::.cpu.data        6342752                       # Number of bytes read from this memory
system.mem_ctrls.bytes_read::total            6368768                       # Number of bytes read from this memory
system.mem_ctrls.bytes_inst_read::.cpu.inst        26016                       # Number of instructions bytes read from this memory
system.mem_ctrls.bytes_inst_read::total         26016                       # Number of instructions bytes read from this memory
system.mem_ctrls.bytes_written::.writebacks      3366016                       # Number of bytes written to this memory
system.mem_ctrls.bytes_written::total         3366016                       # Number of bytes written to this memory
system.mem_ctrls.num_reads::.cpu.inst             813                       # Number of read requests responded to by this memory
system.mem_ctrls.num_reads::.cpu.data          198211                       # Number of read requests responded to by this memory
system.mem_ctrls.num_reads::total              199024                       # Number of read requests responded to by this memory
system.mem_ctrls.num_writes::.writebacks       105188                       # Number of write requests responded to by this memory
system.mem_ctrls.num_writes::total             105188                       # Number of write requests responded to by this memory
system.mem_ctrls.bw_read::.cpu.inst           1347329                       # Total read bandwidth from this memory (bytes/s)
system.mem_ctrls.bw_read::.cpu.data         328481469                       # Total read bandwidth from this memory (bytes/s)
system.mem_ctrls.bw_read::total             329828798                       # Total read bandwidth from this memory (bytes/s)
system.mem_ctrls.bw_inst_read::.cpu.inst      1347329                       # Instruction read bandwidth from this memory (bytes/s)
system.mem_ctrls.bw_inst_read::total          1347329                       # Instruction read bandwidth from this memory (bytes/s)
system.mem_ctrls.bw_write::.writebacks      174320844                       # Write bandwidth from this memory (bytes/s)
system.mem_ctrls.bw_write::total            174320844                       # Write bandwidth from this memory (bytes/s)
system.mem_ctrls.bw_total::.writebacks      174320844                       # Total bandwidth to/from this memory (bytes/s)
system.mem_ctrls.bw_total::.cpu.inst          1347329                       # Total bandwidth to/from this memory (bytes/s)
system.mem_ctrls.bw_total::.cpu.data        328481469                       # Total bandwidth to/from this memory (bytes/s)
system.mem_ctrls.bw_total::total            504149642                       # Total bandwidth to/from this memory (bytes/s)
system.mem_ctrls.avgPriority_.writebacks::samples     71331.00                       # Average QoS priority value for accepted requests
system.mem_ctrls.avgPriority_.cpu.inst::samples       813.00                       # Average QoS priority value for accepted requests
system.mem_ctrls.avgPriority_.cpu.data::samples    198211.00                       # Average QoS priority value for accepted requests
system.mem_ctrls.priorityMinLatency      0.000000018750                       # per QoS priority minimum request to response latency (s)
system.mem_ctrls.priorityMaxLatency      0.000757136250                       # per QoS priority maximum request to response latency (s)
system.mem_ctrls.numReadWriteTurnArounds         4446                       # Number of turnarounds from READ to WRITE
system.mem_ctrls.numWriteReadTurnArounds         4446                       # Number of turnarounds from WRITE to READ
system.mem_ctrls.numStayReadState              501487                       # Number of times bus staying in READ state
system.mem_ctrls.numStayWriteState              66950                       # Number of times bus staying in WRITE state
system.mem_ctrls.readReqs                      199024                       # Number of read requests accepted
system.mem_ctrls.writeReqs                     105188                       # Number of write requests accepted
system.mem_ctrls.readBursts                    199024                       # Number of DRAM read bursts, including those serviced by the write queue
system.mem_ctrls.writeBursts                   105188                       # Number of DRAM write bursts, including those merged in the write queue
system.mem_ctrls.servicedByWrQ                      0                       # Number of DRAM read bursts serviced by the write queue
system.mem_ctrls.mergedWrBursts                 33857                       # Number of DRAM write bursts merged with an existing one
system.mem_ctrls.neitherReadNorWriteReqs            0                       # Number of requests that are neither read nor write
system.mem_ctrls.perBankRdBursts::0             12756                       # Per bank write bursts
system.mem_ctrls.perBankRdBursts::1             12580                       # Per bank write bursts
system.mem_ctrls.perBankRdBursts::2             12532                       # Per bank write bursts
system.mem_ctrls.perBankRdBursts::3             12390                       # Per bank write bursts
system.mem_ctrls.perBankRdBursts::4             12512                       # Per bank write bursts
system.mem_ctrls.perBankRdBursts::5             12381                       # Per bank write bursts
system.mem_ctrls.perBankRdBursts::6             12409                       # Per bank write bursts
system.mem_ctrls.perBankRdBursts::7             12729                       # Per bank write bursts
system.mem_ctrls.perBankRdBursts::8             12395                       # Per bank write bursts
system.mem_ctrls.perBankRdBursts::9             12268                       # Per bank write bursts
system.mem_ctrls.perBankRdBursts::10            12300                       # Per bank write bursts
system.mem_ctrls.perBankRdBursts::11            12287                       # Per bank write bursts
system.mem_ctrls.perBankRdBursts::12            12425                       # Per bank write bursts
system.mem_ctrls.perBankRdBursts::13            12365                       # Per bank write bursts
system.mem_ctrls.perBankRdBursts::14            12306                       # Per bank write bursts
system.mem_ctrls.perBankRdBursts::15            12389                       # Per bank write bursts
system.mem_ctrls.perBankWrBursts::0              4520                       # Per bank write bursts
system.mem_ctrls.perBankWrBursts::1              4524                       # Per bank write bursts
system.mem_ctrls.perBankWrBursts::2              4524                       # Per bank write bursts
system.mem_ctrls.perBankWrBursts::3              4485                       # Per bank write bursts
system.mem_ctrls.perBankWrBursts::4              4504                       # Per bank write bursts
system.mem_ctrls.perBankWrBursts::5              4501                       # Per bank write bursts
system.mem_ctrls.perBankWrBursts::6              4456                       # Per bank write bursts
system.mem_ctrls.perBankWrBursts::7              4509                       # Per bank write bursts
system.mem_ctrls.perBankWrBursts::8              4427                       # Per bank write bursts
system.mem_ctrls.perBankWrBursts::9              4402                       # Per bank write bursts
system.mem_ctrls.perBankWrBursts::10             4398                       # Per bank write bursts
system.mem_ctrls.perBankWrBursts::11             4411                       # Per bank write bursts
system.mem_ctrls.perBankWrBursts::12             4408                       # Per bank write bursts
system.mem_ctrls.perBankWrBursts::13             4412                       # Per bank write bursts
system.mem_ctrls.perBankWrBursts::14             4383                       # Per bank write bursts
system.mem_ctrls.perBankWrBursts::15             4439                       # Per bank write bursts
system.mem_ctrls.avgRdQLen                       1.24                       # Average read queue length when enqueuing
system.mem_ctrls.avgWrQLen                      25.22                       # Average write queue length when enqueuing
system.mem_ctrls.totQLat                   1583266750                       # Total ticks spent queuing
system.mem_ctrls.totBusLat                  995120000                       # Total ticks spent in databus transfers
system.mem_ctrls.totMemAccLat              5314966750                       # Total ticks spent from burst creation until serviced by the DRAM
system.mem_ctrls.avgQLat                      7955.15                       # Average queueing delay per DRAM burst
system.mem_ctrls.avgBusLat                    5000.00                       # Average bus latency per DRAM burst
system.mem_ctrls.avgMemAccLat                26705.15                       # Average memory access latency per DRAM burst
system.mem_ctrls.numRdRetry                         0                       # Number of times read queue was full causing retry
system.mem_ctrls.numWrRetry                         0                       # Number of times write queue was full causing retry
system.mem_ctrls.readRowHits                   180869                       # Number of row buffer hits during reads
system.mem_ctrls.writeRowHits                   62459                       # Number of row buffer hits during writes
system.mem_ctrls.readRowHitRate                 90.88                       # Row buffer hit rate for reads
system.mem_ctrls.writeRowHitRate                87.56                       # Row buffer hit rate for writes
system.mem_ctrls.readPktSize::0                     0                       # Read request sizes (log2)
system.mem_ctrls.readPktSize::1                     0                       # Read request sizes (log2)
system.mem_ctrls.readPktSize::2                     0                       # Read request sizes (log2)
system.mem_ctrls.readPktSize::3                     0                       # Read request sizes (log2)
system.mem_ctrls.readPktSize::4                     0                       # Read request sizes (log2)
system.mem_ctrls.readPktSize::5                199024                       # Read request sizes (log2)
system.mem_ctrls.readPktSize::6                     0                       # Read request sizes (log2)
system.mem_ctrls.writePktSize::0                    0                       # Write request sizes (log2)
system.mem_ctrls.writePktSize::1                    0                       # Write request sizes (log2)
system.mem_ctrls.writePktSize::2                    0                       # Write request sizes (log2)
system.mem_ctrls.writePktSize::3                    0                       # Write request sizes (log2)
system.mem_ctrls.writePktSize::4                    0                       # Write request sizes (log2)
system.mem_ctrls.writePktSize::5               105188                       # Write request sizes (log2)
system.mem_ctrls.writePktSize::6                    0                       # Write request sizes (log2)
system.mem_ctrls.rdQLenPdf::0                  145390                       # What read queue length does an incoming req see
system.mem_ctrls.rdQLenPdf::1                   53533                       # What read queue length does an incoming req see
system.mem_ctrls.rdQLenPdf::2                      94                       # What read queue length does an incoming req see
system.mem_ctrls.rdQLenPdf::3                       6                       # What read queue length does an incoming req see
system.mem_ctrls.rdQLenPdf::4                       1                       # What read queue length does an incoming req see
system.mem_ctrls.rdQLenPdf::5                       0                       # What read queue length does an incoming req see
system.mem_ctrls.rdQLenPdf::6                       0                       # What read queue length does an incoming req see
system.mem_ctrls.rdQLenPdf::7                       0                       # What read queue length does an incoming req see
system.mem_ctrls.rdQLenPdf::8                       0                       # What read queue length does an incoming req see
system.mem_ctrls.rdQLenPdf::9                       0                       # What read queue length does an incoming req see
system.mem_ctrls.rdQLenPdf::10                      0                       # What read queue length does an incoming req see
system.mem_ctrls.rdQLenPdf::11                      0                       # What read queue length does an incoming req see
system.mem_ctrls.rdQLenPdf::12                      0                       # What read queue length does an incoming req see
system.mem_ctrls.rdQLenPdf::13                      0                       # What read queue length does an incoming req see
system.mem_ctrls.rdQLenPdf::14                      0                       # What read queue length does an incoming req see
system.mem_ctrls.rdQLenPdf::15                      0                       # What read queue length does an incoming req see
system.mem_ctrls.rdQLenPdf::16                      0                       # What read queue length does an incoming req see
system.mem_ctrls.rdQLenPdf::17                      0                       # What read queue length does an incoming req see
system.mem_ctrls.rdQLenPdf::18                      0                       # What read queue length does an incoming req see
system.mem_ctrls.rdQLenPdf::19                      0                       # What read queue length does an incoming req see
system.mem_ctrls.rdQLenPdf::20                      0                       # What read queue length does an incoming req see
system.mem_ctrls.rdQLenPdf::21                      0                       # What read queue length does an incoming req see
system.mem_ctrls.rdQLenPdf::22                      0                       # What read queue length does an incoming req see
system.mem_ctrls.rdQLenPdf::23                      0                       # What read queue length does an incoming req see
system.mem_ctrls.rdQLenPdf::24                      0                       # What read queue length does an incoming req see
system.mem_ctrls.rdQLenPdf::25                      0                       # What read queue length does an incoming req see
system.mem_ctrls.rdQLenPdf::26                      0                       # What read queue length does an incoming req see
system.mem_ctrls.rdQLenPdf::27                      0                       # What read queue length does an incoming req see
system.mem_ctrls.rdQLenPdf::28                      0                       # What read queue length does an incoming req see
system.mem_ctrls.rdQLenPdf::29                      0                       # What read queue length does an incoming req see
system.mem_ctrls.rdQLenPdf::30                      0                       # What read queue length does an incoming req see
system.mem_ctrls.rdQLenPdf::31                      0                       # What read queue length does an incoming req see
system.mem_ctrls.wrQLenPdf::0                       1                       # What write queue length does an incoming req see
system.mem_ctrls.wrQLenPdf::1                       1                       # What write queue length does an incoming req see
system.mem_ctrls.wrQLenPdf::2                       1                       # What write queue length does an incoming req see
system.mem_ctrls.wrQLenPdf::3                       1                       # What write queue length does an incoming req see
system.mem_ctrls.wrQLenPdf::4                       1                       # What write queue length does an incoming req see
system.mem_ctrls.wrQLenPdf::5                       1                       # What write queue length does an incoming req see
system.mem_ctrls.wrQLenPdf::6                       1                       # What write queue length does an incoming req see
system.mem_ctrls.wrQLenPdf::7                       1                       # What write queue length does an incoming req see
system.mem_ctrls.wrQLenPdf::8                       1                       # What write queue length does an incoming req see
system.mem_ctrls.wrQLenPdf::9                       1                       # What write queue length does an incoming req see
system.mem_ctrls.wrQLenPdf::10                      1                       # What write queue length does an incoming req see
system.mem_ctrls.wrQLenPdf::11                      1                       # What write queue length does an incoming req see
system.mem_ctrls.wrQLenPdf::12                      1                       # What write queue length does an incoming req see
system.mem_ctrls.wrQLenPdf::13                      1                       # What write queue length does an incoming req see
system.mem_ctrls.wrQLenPdf::14                      1                       # What write queue length does an incoming req see
system.mem_ctrls.wrQLenPdf::15                     83                       # What write queue length does an incoming req see
system.mem_ctrls.wrQLenPdf::16                     83                       # What write queue length does an incoming req see
system.mem_ctrls.wrQLenPdf::17                   4130                       # What write queue length does an incoming req see
system.mem_ctrls.wrQLenPdf::18                   4486                       # What write queue length does an incoming req see
system.mem_ctrls.wrQLenPdf::19                   4451                       # What write queue length does an incoming req see
system.mem_ctrls.wrQLenPdf::20                   4563                       # What write queue length does an incoming req see
system.mem_ctrls.wrQLenPdf::21                   4449                       # What write queue length does an incoming req see
system.mem_ctrls.wrQLenPdf::22                   4452                       # What write queue length does an incoming req see
system.mem_ctrls.wrQLenPdf::23                   4458                       # What write queue length does an incoming req see
system.mem_ctrls.wrQLenPdf::24                   4510                       # What write queue length does an incoming req see
system.mem_ctrls.wrQLenPdf::25                   4495                       # What write queue length does an incoming req see
system.mem_ctrls.wrQLenPdf::26                   4449                       # What write queue length does an incoming req see
system.mem_ctrls.wrQLenPdf::27                   4451                       # What write queue length does an incoming req see
system.mem_ctrls.wrQLenPdf::28                   4462                       # What write queue length does an incoming req see
system.mem_ctrls.wrQLenPdf::29                   4452                       # What write queue length does an incoming req see
system.mem_ctrls.wrQLenPdf::30                   4446                       # What write queue length does an incoming req see
system.mem_ctrls.wrQLenPdf::31                   4447                       # What write queue length does an incoming req see
system.mem_ctrls.wrQLenPdf::32                   4448                       # What write queue length does an incoming req see
system.mem_ctrls.wrQLenPdf::33                      1                       # What write queue length does an incoming req see
system.mem_ctrls.wrQLenPdf::34                      0                       # What write queue length does an incoming req see
system.mem_ctrls.wrQLenPdf::35                      0                       # What write queue length does an incoming req see
system.mem_ctrls.wrQLenPdf::36                      0                       # What write queue length does an incoming req see
system.mem_ctrls.wrQLenPdf::37                      0                       # What write queue length does an incoming req see
system.mem_ctrls.wrQLenPdf::38                      0                       # What write queue length does an incoming req see
system.mem_ctrls.wrQLenPdf::39                      0                       # What write queue length does an incoming req see
system.mem_ctrls.wrQLenPdf::40                      0                       # What write queue length does an incoming req see
system.mem_ctrls.wrQLenPdf::41                      0                       # What write queue length does an incoming req see
system.mem_ctrls.wrQLenPdf::42                      0                       # What write queue length does an incoming req see
system.mem_ctrls.wrQLenPdf::43                      0                       # What write queue length does an incoming req see
system.mem_ctrls.wrQLenPdf::44                      0                       # What write queue length does an incoming req see
system.mem_ctrls.wrQLenPdf::45                      0                       # What write queue length does an incoming req see
system.mem_ctrls.wrQLenPdf::46                      0                       # What write queue length does an incoming req see
system.mem_ctrls.wrQLenPdf::47                      0                       # What write queue length does an incoming req see
system.mem_ctrls.wrQLenPdf::48                      0                       # What write queue length does an incoming req see
system.mem_ctrls.wrQLenPdf::49                      0                       # What write queue length does an incoming req see
system.mem_ctrls.wrQLenPdf::50                      0                       # What write queue length does an incoming req see
system.mem_ctrls.wrQLenPdf::51                      0                       # What write queue length does an incoming req see
system.mem_ctrls.wrQLenPdf::52                      0                       # What write queue length does an incoming req see
system.mem_ctrls.wrQLenPdf::53                      0                       # What write queue length does an incoming req see
system.mem_ctrls.wrQLenPdf::54                      0                       # What write queue length does an incoming req see
system.mem_ctrls.wrQLenPdf::55                      0                       # What write queue length does an incoming req see
system.mem_ctrls.wrQLenPdf::56                      0                       # What write queue length does an incoming req see
system.mem_ctrls.wrQLenPdf::57                      0                       # What write queue length does an incoming req see
system.mem_ctrls.wrQLenPdf::58                      0                       # What write queue length does an incoming req see
system.mem_ctrls.wrQLenPdf::59                      0                       # What write queue length does an incoming req see
system.mem_ctrls.wrQLenPdf::60                      0                       # What write queue length does an incoming req see
system.mem_ctrls.wrQLenPdf::61                      0                       # What write queue length does an incoming req see
system.mem_ctrls.wrQLenPdf::62                      0                       # What write queue length does an incoming req see
system.mem_ctrls.wrQLenPdf::63                      0                       # What write queue length does an incoming req see
system.mem_ctrls.bytesPerActivate::samples        26998                       # Bytes accessed per row activation
system.mem_ctrls.bytesPerActivate::mean    640.815468                       # Bytes accessed per row activation
system.mem_ctrls.bytesPerActivate::gmean   517.144674                       # Bytes accessed per row activation
system.mem_ctrls.bytesPerActivate::stdev   332.754120                       # Bytes accessed per row activation
system.mem_ctrls.bytesPerActivate::0-127         1381      5.12%      5.12% # Bytes accessed per row activation
system.mem_ctrls.bytesPerActivate::128-255         3010     11.15%     16.26% # Bytes accessed per row activation
system.mem_ctrls.bytesPerActivate::256-383         1242      4.60%     20.86% # Bytes accessed per row activation
system.mem_ctrls.bytesPerActivate::384-511          923      3.42%     24.28% # Bytes accessed per row activation
system.mem_ctrls.bytesPerActivate::512-639         8846     32.77%     57.05% # Bytes accessed per row activation
system.mem_ctrls.bytesPerActivate::640-767          487      1.80%     58.85% # Bytes accessed per row activation
system.mem_ctrls.bytesPerActivate::768-895          452      1.67%     60.53% # Bytes accessed per row activation
system.mem_ctrls.bytesPerActivate::896-1023         1295      4.80%     65.32% # Bytes accessed per row activation
system.mem_ctrls.bytesPerActivate::1024-1151         9362     34.68%    100.00% # Bytes accessed per row activation
system.mem_ctrls.bytesPerActivate::total        26998                       # Bytes accessed per row activation
system.mem_ctrls.rdPerTurnAround::samples         4446                       # Reads before turning the bus around for writes
system.mem_ctrls.rdPerTurnAround::mean      44.755960                       # Reads before turning the bus around for writes
system.mem_ctrls.rdPerTurnAround::gmean     34.251172                       # Reads before turning the bus around for writes
system.mem_ctrls.rdPerTurnAround::stdev     48.420092                       # Reads before turning the bus around for writes
system.mem_ctrls.rdPerTurnAround::0-63           2273     51.12%     51.12% # Reads before turning the bus around for writes
system.mem_ctrls.rdPerTurnAround::64-127         2135     48.02%     99.15% # Reads before turning the bus around for writes
system.mem_ctrls.rdPerTurnAround::128-191            1      0.02%     99.17% # Reads before turning the bus around for writes
system.mem_ctrls.rdPerTurnAround::192-255            3      0.07%     99.24% # Reads before turning the bus around for writes
[...]
system.cpu.icache.tags.occ_percent::total     0.285480                       # Average percentage of cache occupancy
system.cpu.icache.tags.occ_task_id_blocks::1024          673                       # Occupied blocks per task id
system.cpu.icache.tags.age_task_id_blocks_1024::3          184                       # Occupied blocks per task id
system.cpu.icache.tags.age_task_id_blocks_1024::4          489                       # Occupied blocks per task id
system.cpu.icache.tags.occ_task_id_percent::1024     0.328613                       # Percentage of cache occupancy per task id
system.cpu.icache.tags.tag_accesses           1529781                       # Number of tag accesses
system.cpu.icache.tags.data_accesses          1529781                       # Number of data accesses
system.cpu.dtb.walker.pwrStateResidencyTicks::UNDEFINED  19309314500                       # Cumulative time (in ticks) in various power states
system.cpu.dtb.stage2_mmu.stage2_tlb.walker.pwrStateResidencyTicks::UNDEFINED  19309314500                       # Cumulative time (in ticks) in various power states
system.cpu.dcache.pwrStateResidencyTicks::UNDEFINED  19309314500                       # Cumulative time (in ticks) in various power states
system.cpu.dcache.demand_hits::.cpu.data      6865049                       # number of demand (read+write) hits
system.cpu.dcache.demand_hits::total          6865049                       # number of demand (read+write) hits
system.cpu.dcache.overall_hits::.cpu.data      6865123                       # number of overall hits
system.cpu.dcache.overall_hits::total         6865123                       # number of overall hits
system.cpu.dcache.demand_misses::.cpu.data       278517                       # number of demand (read+write) misses
system.cpu.dcache.demand_misses::total         278517                       # number of demand (read+write) misses
system.cpu.dcache.overall_misses::.cpu.data       280053                       # number of overall misses
system.cpu.dcache.overall_misses::total        280053                       # number of overall misses
system.cpu.dcache.demand_miss_latency::.cpu.data  19023756999                       # number of demand (read+write) miss cycles
system.cpu.dcache.demand_miss_latency::total  19023756999                       # number of demand (read+write) miss cycles
system.cpu.dcache.overall_miss_latency::.cpu.data  19023756999                       # number of overall miss cycles
system.cpu.dcache.overall_miss_latency::total  19023756999                       # number of overall miss cycles
system.cpu.dcache.demand_accesses::.cpu.data      7143566                       # number of demand (read+write) accesses
system.cpu.dcache.demand_accesses::total      7143566                       # number of demand (read+write) accesses
system.cpu.dcache.overall_accesses::.cpu.data      7145176                       # number of overall (read+write) accesses
system.cpu.dcache.overall_accesses::total      7145176                       # number of overall (read+write) accesses
system.cpu.dcache.demand_miss_rate::.cpu.data     0.038989                       # miss rate for demand accesses
system.cpu.dcache.demand_miss_rate::total     0.038989                       # miss rate for demand accesses
system.cpu.dcache.overall_miss_rate::.cpu.data     0.039195                       # miss rate for overall accesses
system.cpu.dcache.overall_miss_rate::total     0.039195                       # miss rate for overall accesses
system.cpu.dcache.demand_avg_miss_latency::.cpu.data 68303.755243                       # average overall miss latency
system.cpu.dcache.demand_avg_miss_latency::total 68303.755243                       # average overall miss latency
system.cpu.dcache.overall_avg_miss_latency::.cpu.data 67929.131268                       # average overall miss latency
system.cpu.dcache.overall_avg_miss_latency::total 67929.131268                       # average overall miss latency
system.cpu.dcache.blocked_cycles::no_mshrs         1104                       # number of cycles access was blocked
system.cpu.dcache.blocked_cycles::no_targets            0                       # number of cycles access was blocked
system.cpu.dcache.blocked::no_mshrs                28                       # number of cycles access was blocked
system.cpu.dcache.blocked::no_targets               0                       # number of cycles access was blocked
system.cpu.dcache.avg_blocked_cycles::no_mshrs    39.428571                       # average number of cycles each access was blocked
system.cpu.dcache.avg_blocked_cycles::no_targets          nan                       # average number of cycles each access was blocked
system.cpu.dcache.writebacks::.writebacks       112451                       # number of writebacks
system.cpu.dcache.writebacks::total            112451                       # number of writebacks
system.cpu.dcache.demand_mshr_hits::.cpu.data        77646                       # number of demand (read+write) MSHR hits
system.cpu.dcache.demand_mshr_hits::total        77646                       # number of demand (read+write) MSHR hits
system.cpu.dcache.overall_mshr_hits::.cpu.data        77646                       # number of overall MSHR hits
system.cpu.dcache.overall_mshr_hits::total        77646                       # number of overall MSHR hits
system.cpu.dcache.demand_mshr_misses::.cpu.data       200871                       # number of demand (read+write) MSHR misses
system.cpu.dcache.demand_mshr_misses::total       200871                       # number of demand (read+write) MSHR misses
system.cpu.dcache.overall_mshr_misses::.cpu.data       202407                       # number of overall MSHR misses
system.cpu.dcache.overall_mshr_misses::total       202407                       # number of overall MSHR misses
system.cpu.dcache.demand_mshr_miss_latency::.cpu.data  15700824000                       # number of demand (read+write) MSHR miss cycles
system.cpu.dcache.demand_mshr_miss_latency::total  15700824000                       # number of demand (read+write) MSHR miss cycles
system.cpu.dcache.overall_mshr_miss_latency::.cpu.data  15817795997                       # number of overall MSHR miss cycles
system.cpu.dcache.overall_mshr_miss_latency::total  15817795997                       # number of overall MSHR miss cycles
system.cpu.dcache.demand_mshr_miss_rate::.cpu.data     0.028119                       # mshr miss rate for demand accesses
system.cpu.dcache.demand_mshr_miss_rate::total     0.028119                       # mshr miss rate for demand accesses
system.cpu.dcache.overall_mshr_miss_rate::.cpu.data     0.028328                       # mshr miss rate for overall accesses
system.cpu.dcache.overall_mshr_miss_rate::total     0.028328                       # mshr miss rate for overall accesses
system.cpu.dcache.demand_avg_mshr_miss_latency::.cpu.data 78163.717012                       # average overall mshr miss latency
system.cpu.dcache.demand_avg_mshr_miss_latency::total 78163.717012                       # average overall mshr miss latency
system.cpu.dcache.overall_avg_mshr_miss_latency::.cpu.data 78148.463230                       # average overall mshr miss latency
system.cpu.dcache.overall_avg_mshr_miss_latency::total 78148.463230                       # average overall mshr miss latency
system.cpu.dcache.replacements                 201384                       # number of replacements
system.cpu.dcache.ReadReq_hits::.cpu.data      5597976                       # number of ReadReq hits
system.cpu.dcache.ReadReq_hits::total         5597976                       # number of ReadReq hits
system.cpu.dcache.ReadReq_misses::.cpu.data        90066                       # number of ReadReq misses
system.cpu.dcache.ReadReq_misses::total         90066                       # number of ReadReq misses
system.cpu.dcache.ReadReq_miss_latency::.cpu.data   6958147999                       # number of ReadReq miss cycles
system.cpu.dcache.ReadReq_miss_latency::total   6958147999                       # number of ReadReq miss cycles
system.cpu.dcache.ReadReq_accesses::.cpu.data      5688042                       # number of ReadReq accesses(hits+misses)
system.cpu.dcache.ReadReq_accesses::total      5688042                       # number of ReadReq accesses(hits+misses)
system.cpu.dcache.ReadReq_miss_rate::.cpu.data     0.015834                       # miss rate for ReadReq accesses
system.cpu.dcache.ReadReq_miss_rate::total     0.015834                       # miss rate for ReadReq accesses
system.cpu.dcache.ReadReq_avg_miss_latency::.cpu.data 77256.101070                       # average ReadReq miss latency
system.cpu.dcache.ReadReq_avg_miss_latency::total 77256.101070                       # average ReadReq miss latency
system.cpu.dcache.ReadReq_mshr_hits::.cpu.data          790                       # number of ReadReq MSHR hits
system.cpu.dcache.ReadReq_mshr_hits::total          790                       # number of ReadReq MSHR hits
system.cpu.dcache.ReadReq_mshr_misses::.cpu.data        89276                       # number of ReadReq MSHR misses
system.cpu.dcache.ReadReq_mshr_misses::total        89276                       # number of ReadReq MSHR misses
system.cpu.dcache.ReadReq_mshr_miss_latency::.cpu.data   6806074000                       # number of ReadReq MSHR miss cycles
system.cpu.dcache.ReadReq_mshr_miss_latency::total   6806074000                       # number of ReadReq MSHR miss cycles
system.cpu.dcache.ReadReq_mshr_miss_rate::.cpu.data     0.015695                       # mshr miss rate for ReadReq accesses
system.cpu.dcache.ReadReq_mshr_miss_rate::total     0.015695                       # mshr miss rate for ReadReq accesses
system.cpu.dcache.ReadReq_avg_mshr_miss_latency::.cpu.data 76236.323312                       # average ReadReq mshr miss latency
system.cpu.dcache.ReadReq_avg_mshr_miss_latency::total 76236.323312                       # average ReadReq mshr miss latency
system.cpu.dcache.WriteReq_hits::.cpu.data      1267073                       # number of WriteReq hits
system.cpu.dcache.WriteReq_hits::total        1267073                       # number of WriteReq hits
system.cpu.dcache.WriteReq_misses::.cpu.data       188451                       # number of WriteReq misses
system.cpu.dcache.WriteReq_misses::total       188451                       # number of WriteReq misses
system.cpu.dcache.WriteReq_miss_latency::.cpu.data  12065609000                       # number of WriteReq miss cycles
system.cpu.dcache.WriteReq_miss_latency::total  12065609000                       # number of WriteReq miss cycles
system.cpu.dcache.WriteReq_accesses::.cpu.data      1455524                       # number of WriteReq accesses(hits+misses)
system.cpu.dcache.WriteReq_accesses::total      1455524                       # number of WriteReq accesses(hits+misses)
system.cpu.dcache.WriteReq_miss_rate::.cpu.data     0.129473                       # miss rate for WriteReq accesses
system.cpu.dcache.WriteReq_miss_rate::total     0.129473                       # miss rate for WriteReq accesses
system.cpu.dcache.WriteReq_avg_miss_latency::.cpu.data 64025.178959                       # average WriteReq miss latency
system.cpu.dcache.WriteReq_avg_miss_latency::total 64025.178959                       # average WriteReq miss latency
system.cpu.dcache.WriteReq_mshr_hits::.cpu.data        76856                       # number of WriteReq MSHR hits
system.cpu.dcache.WriteReq_mshr_hits::total        76856                       # number of WriteReq MSHR hits
system.cpu.dcache.WriteReq_mshr_misses::.cpu.data       111595                       # number of WriteReq MSHR misses
system.cpu.dcache.WriteReq_mshr_misses::total       111595                       # number of WriteReq MSHR misses
system.cpu.dcache.WriteReq_mshr_miss_latency::.cpu.data   8894750000                       # number of WriteReq MSHR miss cycles
system.cpu.dcache.WriteReq_mshr_miss_latency::total   8894750000                       # number of WriteReq MSHR miss cycles
system.cpu.dcache.WriteReq_mshr_miss_rate::.cpu.data     0.076670                       # mshr miss rate for WriteReq accesses
system.cpu.dcache.WriteReq_mshr_miss_rate::total     0.076670                       # mshr miss rate for WriteReq accesses
system.cpu.dcache.WriteReq_avg_mshr_miss_latency::.cpu.data 79705.631973                       # average WriteReq mshr miss latency
system.cpu.dcache.WriteReq_avg_mshr_miss_latency::total 79705.631973                       # average WriteReq mshr miss latency
system.cpu.dcache.SoftPFReq_hits::.cpu.data           74                       # number of SoftPFReq hits
system.cpu.dcache.SoftPFReq_hits::total            74                       # number of SoftPFReq hits
system.cpu.dcache.SoftPFReq_misses::.cpu.data         1536                       # number of SoftPFReq misses
system.cpu.dcache.SoftPFReq_misses::total         1536                       # number of SoftPFReq misses
system.cpu.dcache.SoftPFReq_accesses::.cpu.data         1610                       # number of SoftPFReq accesses(hits+misses)
system.cpu.dcache.SoftPFReq_accesses::total         1610                       # number of SoftPFReq accesses(hits+misses)
system.cpu.dcache.SoftPFReq_miss_rate::.cpu.data     0.954037                       # miss rate for SoftPFReq accesses
system.cpu.dcache.SoftPFReq_miss_rate::total     0.954037                       # miss rate for SoftPFReq accesses
system.cpu.dcache.SoftPFReq_mshr_misses::.cpu.data         1536                       # number of SoftPFReq MSHR misses
system.cpu.dcache.SoftPFReq_mshr_misses::total         1536                       # number of SoftPFReq MSHR misses
system.cpu.dcache.SoftPFReq_mshr_miss_latency::.cpu.data    116971997                       # number of SoftPFReq MSHR miss cycles
system.cpu.dcache.SoftPFReq_mshr_miss_latency::total    116971997                       # number of SoftPFReq MSHR miss cycles
system.cpu.dcache.SoftPFReq_mshr_miss_rate::.cpu.data     0.954037                       # mshr miss rate for SoftPFReq accesses
system.cpu.dcache.SoftPFReq_mshr_miss_rate::total     0.954037                       # mshr miss rate for SoftPFReq accesses
system.cpu.dcache.SoftPFReq_avg_mshr_miss_latency::.cpu.data 76153.643880                       # average SoftPFReq mshr miss latency
system.cpu.dcache.SoftPFReq_avg_mshr_miss_latency::total 76153.643880                       # average SoftPFReq mshr miss latency
system.cpu.dcache.LoadLockedReq_hits::.cpu.data           37                       # number of LoadLockedReq hits
system.cpu.dcache.LoadLockedReq_hits::total           37                       # number of LoadLockedReq hits
system.cpu.dcache.LoadLockedReq_misses::.cpu.data            1                       # number of LoadLockedReq misses
system.cpu.dcache.LoadLockedReq_misses::total            1                       # number of LoadLockedReq misses
system.cpu.dcache.LoadLockedReq_miss_latency::.cpu.data        72500                       # number of LoadLockedReq miss cycles
system.cpu.dcache.LoadLockedReq_miss_latency::total        72500                       # number of LoadLockedReq miss cycles
system.cpu.dcache.LoadLockedReq_accesses::.cpu.data           38                       # number of LoadLockedReq accesses(hits+misses)
system.cpu.dcache.LoadLockedReq_accesses::total           38                       # number of LoadLockedReq accesses(hits+misses)
system.cpu.dcache.LoadLockedReq_miss_rate::.cpu.data     0.026316                       # miss rate for LoadLockedReq accesses
system.cpu.dcache.LoadLockedReq_miss_rate::total     0.026316                       # miss rate for LoadLockedReq accesses
system.cpu.dcache.LoadLockedReq_avg_miss_latency::.cpu.data        72500                       # average LoadLockedReq miss latency
system.cpu.dcache.LoadLockedReq_avg_miss_latency::total        72500                       # average LoadLockedReq miss latency
system.cpu.dcache.LoadLockedReq_mshr_misses::.cpu.data            1                       # number of LoadLockedReq MSHR misses
system.cpu.dcache.LoadLockedReq_mshr_misses::total            1                       # number of LoadLockedReq MSHR misses
system.cpu.dcache.LoadLockedReq_mshr_miss_latency::.cpu.data        71500                       # number of LoadLockedReq MSHR miss cycles
system.cpu.dcache.LoadLockedReq_mshr_miss_latency::total        71500                       # number of LoadLockedReq MSHR miss cycles
system.cpu.dcache.LoadLockedReq_mshr_miss_rate::.cpu.data     0.026316                       # mshr miss rate for LoadLockedReq accesses
system.cpu.dcache.LoadLockedReq_mshr_miss_rate::total     0.026316                       # mshr miss rate for LoadLockedReq accesses
system.cpu.dcache.LoadLockedReq_avg_mshr_miss_latency::.cpu.data        71500                       # average LoadLockedReq mshr miss latency
system.cpu.dcache.LoadLockedReq_avg_mshr_miss_latency::total        71500                       # average LoadLockedReq mshr miss latency
system.cpu.dcache.StoreCondReq_hits::.cpu.data           38                       # number of StoreCondReq hits
system.cpu.dcache.StoreCondReq_hits::total           38                       # number of StoreCondReq hits
system.cpu.dcache.StoreCondReq_accesses::.cpu.data           38                       # number of StoreCondReq accesses(hits+misses)
system.cpu.dcache.StoreCondReq_accesses::total           38                       # number of StoreCondReq accesses(hits+misses)
system.cpu.dcache.tags.pwrStateResidencyTicks::UNDEFINED  19309314500                       # Cumulative time (in ticks) in various power states
system.cpu.dcache.tags.tagsinuse           957.722957                       # Cycle average of tags in use
system.cpu.dcache.tags.total_refs             7067606                       # Total number of references to valid blocks.
system.cpu.dcache.tags.sampled_refs            202408                       # Sample count of references to valid blocks.
system.cpu.dcache.tags.avg_refs             34.917622                       # Average number of references to valid blocks.
system.cpu.dcache.tags.warmup_cycle            176500                       # Cycle when the warmup percentage was hit.
system.cpu.dcache.tags.occ_blocks::.cpu.data   957.722957                       # Average occupied blocks per requestor
system.cpu.dcache.tags.occ_percent::.cpu.data     0.935276                       # Average percentage of cache occupancy
system.cpu.dcache.tags.occ_percent::total     0.935276                       # Average percentage of cache occupancy
system.cpu.dcache.tags.occ_task_id_blocks::1024         1024                       # Occupied blocks per task id
system.cpu.dcache.tags.age_task_id_blocks_1024::0            5                       # Occupied blocks per task id
system.cpu.dcache.tags.age_task_id_blocks_1024::1           38                       # Occupied blocks per task id
system.cpu.dcache.tags.age_task_id_blocks_1024::2          686                       # Occupied blocks per task id
system.cpu.dcache.tags.age_task_id_blocks_1024::3          295                       # Occupied blocks per task id
system.cpu.dcache.tags.occ_task_id_percent::1024            1                       # Percentage of cache occupancy per task id
system.cpu.dcache.tags.tag_accesses           7347660                       # Number of tag accesses
system.cpu.dcache.tags.data_accesses          7347660                       # Number of data accesses
system.cpu.itb.walker.pwrStateResidencyTicks::UNDEFINED  19309314500                       # Cumulative time (in ticks) in various power states
system.cpu.itb.stage2_mmu.stage2_tlb.walker.pwrStateResidencyTicks::UNDEFINED  19309314500                       # Cumulative time (in ticks) in various power states

---------- End Simulation Statistics   ----------
