
---------- Begin Simulation Statistics ----------
final_tick                                13606519500                       # Number of ticks from beginning of simulation (restored from checkpoints and never reset)
host_inst_rate                                 271915                       # Simulator instruction rate (inst/s)
host_mem_usage                                 697312                       # Number of bytes of host memory used
host_op_rate                                   272684                       # Simulator op (including micro ops) rate (op/s)
host_seconds                                    36.78                       # Real time elapsed on the host
host_tick_rate                              369980888                       # Simulator tick rate (ticks/s)
sim_freq                                 1000000000000                       # Frequency of simulated ticks
sim_insts                                    10000000                       # Number of instructions simulated
sim_ops                                      10028308                       # Number of ops (including micro ops) simulated
sim_seconds                                  0.013607                       # Number of seconds simulated
sim_ticks                                 13606519500                       # Number of ticks simulated
system.cpu.branchPred.BTBCorrect                    0                       # Number of correct BTB predictions (this stat may not work properly.
system.cpu.branchPred.BTBHitPct             98.803707                       # BTB Hit Percentage
system.cpu.branchPred.BTBHits                  300303                       # Number of BTB hits
system.cpu.branchPred.BTBLookups               303939                       # Number of BTB lookups
system.cpu.branchPred.RASInCorrect                  5                       # Number of incorrect RAS predictions.
system.cpu.branchPred.condIncorrect              7161                       # Number of conditional branches incorrect
system.cpu.branchPred.condPredicted            603860                       # Number of conditional branches predicted
system.cpu.branchPred.indirectHits                127                       # Number of indirect target hits.
system.cpu.branchPred.indirectLookups             398                       # Number of indirect predictor lookups.
system.cpu.branchPred.indirectMisses              271                       # Number of indirect misses.
system.cpu.branchPred.lookups                  716799                       # Number of BP lookups
system.cpu.branchPred.usedRAS                    6950                       # Number of times the RAS was used to get a target.
system.cpu.branchPredindirectMispredicted          171                       # Number of mispredicted indirect branches.
system.cpu.committedInsts                    10000000                       # Number of instructions committed
system.cpu.committedOps                      10028308                       # Number of ops (including micro ops) committed
system.cpu.cpi                               2.721304                       # CPI: cycles per instruction
system.cpu.discardedOps                         15357                       # Number of ops (including micro ops) which were discarded before commit
system.cpu.dtb.accesses                             0                       # DTB accesses
system.cpu.dtb.align_faults                         0                       # Number of TLB faults due to alignment restrictions
system.cpu.dtb.domain_faults                        0                       # Number of TLB faults due to domain restrictions
system.cpu.dtb.flush_entries                        0                       # Number of entries that have been flushed from TLB
system.cpu.dtb.flush_tlb                            0                       # Number of times complete TLB was flushed
system.cpu.dtb.flush_tlb_asid                       0                       # Number of times TLB was flushed by ASID
system.cpu.dtb.flush_tlb_mva                        0                       # Number of times TLB was flushed by MVA
system.cpu.dtb.flush_tlb_mva_asid                   0                       # Number of times TLB was flushed by MVA & ASID
system.cpu.dtb.hits                                 0                       # DTB hits
system.cpu.dtb.inst_accesses                        0                       # ITB inst accesses
system.cpu.dtb.inst_hits                            0                       # ITB inst hits
system.cpu.dtb.inst_misses                          0                       # ITB inst misses
system.cpu.dtb.misses                               0                       # DTB misses
system.cpu.dtb.perms_faults                         0                       # Number of TLB faults due to permissions restrictions
system.cpu.dtb.prefetch_faults                      0                       # Number of TLB faults due to prefetch
system.cpu.dtb.read_accesses                        0                       # DTB read accesses
system.cpu.dtb.read_hits                            0                       # DTB read hits
system.cpu.dtb.read_misses                          0                       # DTB read misses
system.cpu.dtb.stage2_mmu.stage2_tlb.accesses            0                       # DTB accesses
system.cpu.dtb.stage2_mmu.stage2_tlb.align_faults            0                       # Number of TLB faults due to alignment restrictions
system.cpu.dtb.stage2_mmu.stage2_tlb.domain_faults            0                       # Number of TLB faults due to domain restrictions
system.cpu.dtb.stage2_mmu.stage2_tlb.flush_entries            0                       # Number of entries that have been flushed from TLB
system.cpu.dtb.stage2_mmu.stage2_tlb.flush_tlb            0                       # Number of times complete TLB was flushed
system.cpu.dtb.stage2_mmu.stage2_tlb.flush_tlb_asid            0                       # Number of times TLB was flushed by ASID
system.cpu.dtb.stage2_mmu.stage2_tlb.flush_tlb_mva            0                       # Number of times TLB was flushed by MVA
system.cpu.dtb.stage2_mmu.stage2_tlb.flush_tlb_mva_asid            0                       # Number of times TLB was flushed by MVA & ASID
system.cpu.dtb.stage2_mmu.stage2_tlb.hits            0                       # DTB hits
system.cpu.dtb.stage2_mmu.stage2_tlb.inst_accesses            0                       # ITB inst accesses
system.cpu.dtb.stage2_mmu.stage2_tlb.inst_hits            0                       # ITB inst hits
system.cpu.dtb.stage2_mmu.stage2_tlb.inst_misses            0                       # ITB inst misses
system.cpu.dtb.stage2_mmu.stage2_tlb.misses            0                       # DTB misses
system.cpu.dtb.stage2_mmu.stage2_tlb.perms_faults            0                       # Number of TLB faults due to permissions restrictions
system.cpu.dtb.stage2_mmu.stage2_tlb.prefetch_faults            0                       # Number of TLB faults due to prefetch
system.cpu.dtb.stage2_mmu.stage2_tlb.read_accesses            0                       # DTB read accesses
system.cpu.dtb.stage2_mmu.stage2_tlb.read_hits            0                       # DTB read hits
system.cpu.dtb.stage2_mmu.stage2_tlb.read_misses            0                       # DTB read misses
system.cpu.dtb.stage2_mmu.stage2_tlb.walker.walkRequestOrigin_Requested::Data            0                       # Table walker requests started/completed, data/inst
system.cpu.dtb.stage2_mmu.stage2_tlb.walker.walkRequestOrigin_Requested::Inst            0                       # Table walker requests started/completed, data/inst
system.cpu.dtb.stage2_mmu.stage2_tlb.walker.walkRequestOrigin_Requested::total            0                       # Table walker requests started/completed, data/inst
system.cpu.dtb.stage2_mmu.stage2_tlb.walker.walkRequestOrigin_Completed::Data            0                       # Table walker requests started/completed, data/inst
system.cpu.dtb.stage2_mmu.stage2_tlb.walker.walkRequestOrigin_Completed::Inst            0                       # Table walker requests started/completed, data/inst
system.cpu.dtb.stage2_mmu.stage2_tlb.walker.walkRequestOrigin_Completed::total            0                       # Table walker requests started/completed, data/inst
system.cpu.dtb.stage2_mmu.stage2_tlb.walker.walkRequestOrigin::total            0                       # Table walker requests started/completed, data/inst
system.cpu.dtb.stage2_mmu.stage2_tlb.walker.walks            0                       # Table walker walks requested
system.cpu.dtb.stage2_mmu.stage2_tlb.write_accesses            0                       # DTB write accesses
system.cpu.dtb.stage2_mmu.stage2_tlb.write_hits            0                       # DTB write hits
system.cpu.dtb.stage2_mmu.stage2_tlb.write_misses            0                       # DTB write misses
system.cpu.dtb.walker.walkRequestOrigin_Requested::Data            0                       # Table walker requests started/completed, data/inst
system.cpu.dtb.walker.walkRequestOrigin_Requested::Inst            0                       # Table walker requests started/completed, data/inst
system.cpu.dtb.walker.walkRequestOrigin_Requested::total            0                       # Table walker requests started/completed, data/inst
system.cpu.dtb.walker.walkRequestOrigin_Completed::Data            0                       # Table walker requests started/completed, data/inst
system.cpu.dtb.walker.walkRequestOrigin_Completed::Inst            0                       # Table walker requests started/completed, data/inst
system.cpu.dtb.walker.walkRequestOrigin_Completed::total            0                       # Table walker requests started/completed, data/inst
system.cpu.dtb.walker.walkRequestOrigin::total            0                       # Table walker requests started/completed, data/inst
system.cpu.dtb.walker.walks                         0                       # Table walker walks requested
system.cpu.dtb.write_accesses                       0                       # DTB write accesses
system.cpu.dtb.write_hits                           0                       # DTB write hits
system.cpu.dtb.write_misses                         0                       # DTB write misses
system.cpu.fetch2.amo_instructions                  0                       # Number of memory atomic instructions successfully decoded
system.cpu.fetch2.fp_instructions                   0                       # Number of floating point instructions successfully decoded
system.cpu.fetch2.int_instructions            2169332                       # Number of integer instructions successfully decoded
system.cpu.fetch2.load_instructions           5801052                       # Number of memory load instructions successfully decoded
system.cpu.fetch2.store_instructions          1454399                       # Number of memory store instructions successfully decoded
system.cpu.fetch2.vec_instructions                  0                       # Number of SIMD instructions successfully decoded
system.cpu.idleCycles                        12711119                       # Total number of cycles that the object has spent stopped
system.cpu.ipc                               0.367471                       # IPC: instructions per cycle
system.cpu.itb.accesses                             0                       # DTB accesses
system.cpu.itb.align_faults                         0                       # Number of TLB faults due to alignment restrictions
system.cpu.itb.domain_faults                        0                       # Number of TLB faults due to domain restrictions
system.cpu.itb.flush_entries                        0                       # Number of entries that have been flushed from TLB
system.cpu.itb.flush_tlb                            0                       # Number of times complete TLB was flushed
system.cpu.itb.flush_tlb_asid                       0                       # Number of times TLB was flushed by ASID
system.cpu.itb.flush_tlb_mva                        0                       # Number of times TLB was flushed by MVA
system.cpu.itb.flush_tlb_mva_asid                   0                       # Number of times TLB was flushed by MVA & ASID
system.cpu.itb.hits                                 0                       # DTB hits
system.cpu.itb.inst_accesses                        0                       # ITB inst accesses
system.cpu.itb.inst_hits                            0                       # ITB inst hits
system.cpu.itb.inst_misses                          0                       # ITB inst misses
system.cpu.itb.misses                               0                       # DTB misses
system.cpu.itb.perms_faults                         0                       # Number of TLB faults due to permissions restrictions
system.cpu.itb.prefetch_faults                      0                       # Number of TLB faults due to prefetch
system.cpu.itb.read_accesses                        0                       # DTB read accesses
system.cpu.itb.read_hits                            0                       # DTB read hits
system.cpu.itb.read_misses                          0                       # DTB read misses
system.cpu.itb.stage2_mmu.stage2_tlb.accesses            0                       # DTB accesses
system.cpu.itb.stage2_mmu.stage2_tlb.align_faults            0                       # Number of TLB faults due to alignment restrictions
system.cpu.itb.stage2_mmu.stage2_tlb.domain_faults            0                       # Number of TLB faults due to domain restrictions
system.cpu.itb.stage2_mmu.stage2_tlb.flush_entries            0                       # Number of entries that have been flushed from TLB
system.cpu.itb.stage2_mmu.stage2_tlb.flush_tlb            0                       # Number of times complete TLB was flushed
system.cpu.itb.stage2_mmu.stage2_tlb.flush_tlb_asid            0                       # Number of times TLB was flushed by ASID
system.cpu.itb.stage2_mmu.stage2_tlb.flush_tlb_mva            0                       # Number of times TLB was flushed by MVA
system.cpu.itb.stage2_mmu.stage2_tlb.flush_tlb_mva_asid            0                       # Number of times TLB was flushed by MVA & ASID
system.cpu.itb.stage2_mmu.stage2_tlb.hits            0                       # DTB hits
system.cpu.itb.stage2_mmu.stage2_tlb.inst_accesses            0                       # ITB inst accesses
system.cpu.itb.stage2_mmu.stage2_tlb.inst_hits            0                       # ITB inst hits
system.cpu.itb.stage2_mmu.stage2_tlb.inst_misses            0                       # ITB inst misses
system.cpu.itb.stage2_mmu.stage2_tlb.misses            0                       # DTB misses
system.cpu.itb.stage2_mmu.stage2_tlb.perms_faults            0                       # Number of TLB faults due to permissions restrictions
system.cpu.itb.stage2_mmu.stage2_tlb.prefetch_faults            0                       # Number of TLB faults due to prefetch
system.cpu.itb.stage2_mmu.stage2_tlb.read_accesses            0                       # DTB read accesses
system.cpu.itb.stage2_mmu.stage2_tlb.read_hits            0                       # DTB read hits
system.cpu.itb.stage2_mmu.stage2_tlb.read_misses            0                       # DTB read misses
system.cpu.itb.stage2_mmu.stage2_tlb.walker.walkRequestOrigin_Requested::Data            0                       # Table walker requests started/completed, data/inst
system.cpu.itb.stage2_mmu.stage2_tlb.walker.walkRequestOrigin_Requested::Inst            0                       # Table walker requests started/completed, data/inst
system.cpu.itb.stage2_mmu.stage2_tlb.walker.walkRequestOrigin_Requested::total            0                       # Table walker requests started/completed, data/inst
system.cpu.itb.stage2_mmu.stage2_tlb.walker.walkRequestOrigin_Completed::Data            0                       # Table walker requests started/completed, data/inst
system.cpu.itb.stage2_mmu.stage2_tlb.walker.walkRequestOrigin_Completed::Inst            0                       # Table walker requests started/completed, data/inst
system.cpu.itb.stage2_mmu.stage2_tlb.walker.walkRequestOrigin_Completed::total            0                       # Table walker requests started/completed, data/inst
system.cpu.itb.stage2_mmu.stage2_tlb.walker.walkRequestOrigin::total            0                       # Table walker requests started/completed, data/inst
system.cpu.itb.stage2_mmu.stage2_tlb.walker.walks            0                       # Table walker walks requested
system.cpu.itb.stage2_mmu.stage2_tlb.write_accesses            0                       # DTB write accesses
system.cpu.itb.stage2_mmu.stage2_tlb.write_hits            0                       # DTB write hits
system.cpu.itb.stage2_mmu.stage2_tlb.write_misses            0                       # DTB write misses
system.cpu.itb.walker.walkRequestOrigin_Requested::Data            0                       # Table walker requests started/completed, data/inst
system.cpu.itb.walker.walkRequestOrigin_Requested::Inst            0                       # Table walker requests started/completed, data/inst
system.cpu.itb.walker.walkRequestOrigin_Requested::total            0                       # Table walker requests started/completed, data/inst
system.cpu.itb.walker.walkRequestOrigin_Completed::Data            0                       # Table walker requests started/completed, data/inst
system.cpu.itb.walker.walkRequestOrigin_Completed::Inst            0                       # Table walker requests started/completed, data/inst
system.cpu.itb.walker.walkRequestOrigin_Completed::total            0                       # Table walker requests started/completed, data/inst
system.cpu.itb.walker.walkRequestOrigin::total            0                       # Table walker requests started/completed, data/inst
system.cpu.itb.walker.walks                         0                       # Table walker walks requested
system.cpu.itb.write_accesses                       0                       # DTB write accesses
system.cpu.itb.write_hits                           0                       # DTB write hits
system.cpu.itb.write_misses                         0                       # DTB write misses
system.cpu.numCycles                         27213039                       # number of cpu cycles simulated
system.cpu.numFetchSuspends                         0                       # Number of times Execute suspended instruction fetching
system.cpu.numWorkItemsCompleted                    0                       # number of work items this cpu completed
system.cpu.numWorkItemsStarted                      0                       # number of work items this cpu started
system.cpu.op_class_0::No_OpClass                   0      0.00%      0.00% # Class of committed instruction
system.cpu.op_class_0::IntAlu                 2830128     28.22%     28.22% # Class of committed instruction
system.cpu.op_class_0::IntMult                  20549      0.20%     28.43% # Class of committed instruction
system.cpu.op_class_0::IntDiv                       0      0.00%     28.43% # Class of committed instruction
system.cpu.op_class_0::FloatAdd                     0      0.00%     28.43% # Class of committed instruction
system.cpu.op_class_0::FloatCmp                     0      0.00%     28.43% # Class of committed instruction
system.cpu.op_class_0::FloatCvt                     0      0.00%     28.43% # Class of committed instruction
system.cpu.op_class_0::FloatMult                    0      0.00%     28.43% # Class of committed instruction
system.cpu.op_class_0::FloatMultAcc                 0      0.00%     28.43% # Class of committed instruction
system.cpu.op_class_0::FloatDiv                     0      0.00%     28.43% # Class of committed instruction
system.cpu.op_class_0::FloatMisc                    0      0.00%     28.43% # Class of committed instruction
system.cpu.op_class_0::FloatSqrt                    0      0.00%     28.43% # Class of committed instruction
system.cpu.op_class_0::SimdAdd                      0      0.00%     28.43% # Class of committed instruction
system.cpu.op_class_0::SimdAddAcc                   0      0.00%     28.43% # Class of committed instruction
system.cpu.op_class_0::SimdAlu                      0      0.00%     28.43% # Class of committed instruction
system.cpu.op_class_0::SimdCmp                      0      0.00%     28.43% # Class of committed instruction
system.cpu.op_class_0::SimdCvt                      0      0.00%     28.43% # Class of committed instruction
system.cpu.op_class_0::SimdMisc                     0      0.00%     28.43% # Class of committed instruction
system.cpu.op_class_0::SimdMult                     0      0.00%     28.43% # Class of committed instruction
system.cpu.op_class_0::SimdMultAcc                  0      0.00%     28.43% # Class of committed instruction
system.cpu.op_class_0::SimdShift                    0      0.00%     28.43% # Class of committed instruction
system.cpu.op_class_0::SimdShiftAcc                 0      0.00%     28.43% # Class of committed instruction
system.cpu.op_class_0::SimdDiv                      0      0.00%     28.43% # Class of committed instruction
system.cpu.op_class_0::SimdSqrt                     0      0.00%     28.43% # Class of committed instruction
system.cpu.op_class_0::SimdFloatAdd                 0      0.00%     28.43% # Class of committed instruction
system.cpu.op_class_0::SimdFloatAlu                 0      0.00%     28.43% # Class of committed instruction
system.cpu.op_class_0::SimdFloatCmp                 0      0.00%     28.43% # Class of committed instruction
system.cpu.op_class_0::SimdFloatCvt                 0      0.00%     28.43% # Class of committed instruction
system.cpu.op_class_0::SimdFloatDiv                 0      0.00%     28.43% # Class of committed instruction
system.cpu.op_class_0::SimdFloatMisc               18      0.00%     28.43% # Class of committed instruction
system.cpu.op_class_0::SimdFloatMult                0      0.00%     28.43% # Class of committed instruction
system.cpu.op_class_0::SimdFloatMultAcc             0      0.00%     28.43% # Class of committed instruction
system.cpu.op_class_0::SimdFloatSqrt                0      0.00%     28.43% # Class of committed instruction
system.cpu.op_class_0::SimdReduceAdd                0      0.00%     28.43% # Class of committed instruction
system.cpu.op_class_0::SimdReduceAlu                0      0.00%     28.43% # Class of committed instruction
system.cpu.op_class_0::SimdReduceCmp                0      0.00%     28.43% # Class of committed instruction
system.cpu.op_class_0::SimdFloatReduceAdd            0      0.00%     28.43% # Class of committed instruction
system.cpu.op_class_0::SimdFloatReduceCmp            0      0.00%     28.43% # Class of committed instruction
system.cpu.op_class_0::SimdAes                      0      0.00%     28.43% # Class of committed instruction
system.cpu.op_class_0::SimdAesMix                   0      0.00%     28.43% # Class of committed instruction
system.cpu.op_class_0::SimdSha1Hash                 0      0.00%     28.43% # Class of committed instruction
system.cpu.op_class_0::SimdSha1Hash2                0      0.00%     28.43% # Class of committed instruction
system.cpu.op_class_0::SimdSha256Hash               0      0.00%     28.43% # Class of committed instruction
system.cpu.op_class_0::SimdSha256Hash2              0      0.00%     28.43% # Class of committed instruction
system.cpu.op_class_0::SimdShaSigma2                0      0.00%     28.43% # Class of committed instruction
system.cpu.op_class_0::SimdShaSigma3                0      0.00%     28.43% # Class of committed instruction
system.cpu.op_class_0::SimdPredAlu                  0      0.00%     28.43% # Class of committed instruction
system.cpu.op_class_0::MemRead                5721911     57.06%     85.48% # Class of committed instruction
system.cpu.op_class_0::MemWrite               1455702     14.52%    100.00% # Class of committed instruction
system.cpu.op_class_0::FloatMemRead                 0      0.00%    100.00% # Class of committed instruction
system.cpu.op_class_0::FloatMemWrite                0      0.00%    100.00% # Class of committed instruction
system.cpu.op_class_0::IprAccess                    0      0.00%    100.00% # Class of committed instruction
system.cpu.op_class_0::InstPrefetch                 0      0.00%    100.00% # Class of committed instruction
system.cpu.op_class_0::total                 10028308                       # Class of committed instruction
system.cpu.tickCycles                        14501920                       # Number of cycles that the object actually ticked
system.cpu.workload.numSyscalls                    84                       # Number of system calls
system.membus.snoop_filter.hit_multi_requests            0                       # Number of requests hitting in the snoop filter with multiple (>1) holders of the requested data.
system.membus.snoop_filter.hit_multi_snoops            0                       # Number of snoops hitting in the snoop filter with multiple (>1) holders of the requested data.
system.membus.snoop_filter.hit_single_requests       111572                       # Number of requests hitting in the snoop filter with a single holder of the requested data.
system.membus.snoop_filter.hit_single_snoops            0                       # Number of snoops hitting in the snoop filter with a single holder of the requested data.
system.membus.snoop_filter.tot_requests        231765                       # Total number of requests made to the snoop filter.
system.membus.snoop_filter.tot_snoops               0                       # Total number of snoops made to the snoop filter.
system.tol2bus.snoop_filter.hit_multi_requests           36                       # Number of requests hitting in the snoop filter with multiple (>1) holders of the requested data.
system.tol2bus.snoop_filter.hit_multi_snoops            0                       # Number of snoops hitting in the snoop filter with multiple (>1) holders of the requested data.
system.tol2bus.snoop_filter.hit_single_requests       117855                       # Number of requests hitting in the snoop filter with a single holder of the requested data.
system.tol2bus.snoop_filter.hit_single_snoops          452                       # Number of snoops hitting in the snoop filter with a single holder of the requested data.
system.tol2bus.snoop_filter.tot_requests       238275                       # Total number of requests made to the snoop filter.
system.tol2bus.snoop_filter.tot_snoops            452                       # Total number of snoops made to the snoop filter.
system.membus.pwrStateResidencyTicks::UNDEFINED  13606519500                       # Cumulative time (in ticks) in various power states
system.membus.trans_dist::ReadResp              49958                       # Transaction distribution
system.membus.trans_dist::WritebackDirty        68658                       # Transaction distribution
system.membus.trans_dist::CleanEvict            42903                       # Transaction distribution
system.membus.trans_dist::ReadExReq             70246                       # Transaction distribution
system.membus.trans_dist::ReadExResp            70246                       # Transaction distribution
system.membus.trans_dist::ReadSharedReq         49958                       # Transaction distribution
system.membus.pkt_count_system.l2.mem_side::system.mem_ctrls.port       351969                       # Packet count per connected master and slave (bytes)
system.membus.pkt_count::total                 351969                       # Packet count per connected master and slave (bytes)
system.membus.pkt_size_system.l2.mem_side::system.mem_ctrls.port     12087168                       # Cumulative packet size per connected master and slave (bytes)
system.membus.pkt_size::total                12087168                       # Cumulative packet size per connected master and slave (bytes)
system.membus.snoops                                0                       # Total snoops (count)
system.membus.snoopTraffic                          0                       # Total snoop traffic (bytes)
system.membus.snoop_fanout::samples            120204                       # Request fanout histogram
system.membus.snoop_fanout::mean                    0                       # Request fanout histogram
system.membus.snoop_fanout::stdev                   0                       # Request fanout histogram
system.membus.snoop_fanout::underflows              0      0.00%      0.00% # Request fanout histogram
system.membus.snoop_fanout::0                  120204    100.00%    100.00% # Request fanout histogram
system.membus.snoop_fanout::1                       0      0.00%    100.00% # Request fanout histogram
system.membus.snoop_fanout::overflows               0      0.00%    100.00% # Request fanout histogram
system.membus.snoop_fanout::min_value               0                       # Request fanout histogram
system.membus.snoop_fanout::max_value               0                       # Request fanout histogram
system.membus.snoop_fanout::total              120204                       # Request fanout histogram
system.membus.respLayer1.occupancy          642218500                       # Layer occupancy (ticks)
system.membus.respLayer1.utilization              4.7                       # Layer utilization (%)
system.membus.reqLayer0.occupancy           524159500                       # Layer occupancy (ticks)
system.membus.reqLayer0.utilization               3.9                       # Layer utilization (%)
system.tol2bus.pwrStateResidencyTicks::UNDEFINED  13606519500                       # Cumulative time (in ticks) in various power states
system.tol2bus.trans_dist::ReadResp             50182                       # Transaction distribution
system.tol2bus.trans_dist::WritebackDirty       137846                       # Transaction distribution
system.tol2bus.trans_dist::CleanEvict           92014                       # Transaction distribution
system.tol2bus.trans_dist::ReadExReq            70246                       # Transaction distribution
system.tol2bus.trans_dist::ReadExResp           70246                       # Transaction distribution
system.tol2bus.trans_dist::ReadCleanReq           533                       # Transaction distribution
system.tol2bus.trans_dist::ReadSharedReq        49649                       # Transaction distribution
system.tol2bus.pkt_count_system.cpu.icache.mem_side::system.l2.cpu_side         1066                       # Packet count per connected master and slave (bytes)
system.tol2bus.pkt_count_system.cpu.dcache.mem_side::system.l2.cpu_side       357637                       # Packet count per connected master and slave (bytes)
system.tol2bus.pkt_count::total                358703                       # Packet count per connected master and slave (bytes)
system.tol2bus.pkt_size_system.cpu.icache.mem_side::system.l2.cpu_side        34112                       # Cumulative packet size per connected master and slave (bytes)
system.tol2bus.pkt_size_system.cpu.dcache.mem_side::system.l2.cpu_side     12101312                       # Cumulative packet size per connected master and slave (bytes)
system.tol2bus.pkt_size::total               12135424                       # Cumulative packet size per connected master and slave (bytes)
system.tol2bus.snoops                          112013                       # Total snoops (count)
system.tol2bus.snoopTraffic                   4394112                       # Total snoop traffic (bytes)
system.tol2bus.snoop_fanout::samples           232441                       # Request fanout histogram
system.tol2bus.snoop_fanout::mean            0.002134                       # Request fanout histogram
system.tol2bus.snoop_fanout::stdev           0.046145                       # Request fanout histogram
system.tol2bus.snoop_fanout::underflows             0      0.00%      0.00% # Request fanout histogram
system.tol2bus.snoop_fanout::0                 231945     99.79%     99.79% # Request fanout histogram
system.tol2bus.snoop_fanout::1                    496      0.21%    100.00% # Request fanout histogram
system.tol2bus.snoop_fanout::2                      0      0.00%    100.00% # Request fanout histogram
system.tol2bus.snoop_fanout::overflows              0      0.00%    100.00% # Request fanout histogram
system.tol2bus.snoop_fanout::min_value              0                       # Request fanout histogram
system.tol2bus.snoop_fanout::max_value              1                       # Request fanout histogram
system.tol2bus.snoop_fanout::total             232441                       # Request fanout histogram
system.tol2bus.reqLayer0.occupancy          188325500                       # Layer occupancy (ticks)
system.tol2bus.reqLayer0.utilization              1.4                       # Layer utilization (%)
system.tol2bus.respLayer1.occupancy         179843997                       # Layer occupancy (ticks)
system.tol2bus.respLayer1.utilization             1.3                       # Layer utilization (%)
system.tol2bus.respLayer0.occupancy            799500                       # Layer occupancy (ticks)
system.tol2bus.respLayer0.utilization             0.0                       # Layer utilization (%)
system.voltage_domain.voltage                       1                       # Voltage in Volts
system.clk_domain.clock                          1000                       # Clock period in ticks
system.l2.pwrStateResidencyTicks::UNDEFINED  13606519500                       # Cumulative time (in ticks) in various power states
system.l2.demand_hits::.cpu.inst                   15                       # number of demand (read+write) hits
system.l2.demand_hits::.cpu.data                  206                       # number of demand (read+write) hits
system.l2.demand_hits::total                      221                       # number of demand (read+write) hits
system.l2.overall_hits::.cpu.inst                  15                       # number of overall hits
system.l2.overall_hits::.cpu.data                 206                       # number of overall hits
system.l2.overall_hits::total                     221                       # number of overall hits
system.l2.demand_misses::.cpu.inst                518                       # number of demand (read+write) misses
system.l2.demand_misses::.cpu.data             119689                       # number of demand (read+write) misses
system.l2.demand_misses::total                 120207                       # number of demand (read+write) misses
system.l2.overall_misses::.cpu.inst               518                       # number of overall misses
system.l2.overall_misses::.cpu.data            119689                       # number of overall misses
system.l2.overall_misses::total                120207                       # number of overall misses
system.l2.demand_miss_latency::.cpu.inst     39973500                       # number of demand (read+write) miss cycles
system.l2.demand_miss_latency::.cpu.data   9938190000                       # number of demand (read+write) miss cycles
system.l2.demand_miss_latency::total       9978163500                       # number of demand (read+write) miss cycles
system.l2.overall_miss_latency::.cpu.inst     39973500                       # number of overall miss cycles
system.l2.overall_miss_latency::.cpu.data   9938190000                       # number of overall miss cycles
system.l2.overall_miss_latency::total      9978163500                       # number of overall miss cycles
system.l2.demand_accesses::.cpu.inst              533                       # number of demand (read+write) accesses
system.l2.demand_accesses::.cpu.data           119895                       # number of demand (read+write) accesses
system.l2.demand_accesses::total               120428                       # number of demand (read+write) accesses
system.l2.overall_accesses::.cpu.inst             533                       # number of overall (read+write) accesses
system.l2.overall_accesses::.cpu.data          119895                       # number of overall (read+write) accesses
system.l2.overall_accesses::total              120428                       # number of overall (read+write) accesses
system.l2.demand_miss_rate::.cpu.inst        0.971857                       # miss rate for demand accesses
system.l2.demand_miss_rate::.cpu.data        0.998282                       # miss rate for demand accesses
system.l2.demand_miss_rate::total            0.998165                       # miss rate for demand accesses
system.l2.overall_miss_rate::.cpu.inst       0.971857                       # miss rate for overall accesses
system.l2.overall_miss_rate::.cpu.data       0.998282                       # miss rate for overall accesses
system.l2.overall_miss_rate::total           0.998165                       # miss rate for overall accesses
system.l2.demand_avg_miss_latency::.cpu.inst 77168.918919                       # average overall miss latency
system.l2.demand_avg_miss_latency::.cpu.data 83033.445012                       # average overall miss latency
system.l2.demand_avg_miss_latency::total 83008.173401                       # average overall miss latency
system.l2.overall_avg_miss_latency::.cpu.inst 77168.918919                       # average overall miss latency
system.l2.overall_avg_miss_latency::.cpu.data 83033.445012                       # average overall miss latency
system.l2.overall_avg_miss_latency::total 83008.173401                       # average overall miss latency
system.l2.blocked_cycles::no_mshrs                  0                       # number of cycles access was blocked
system.l2.blocked_cycles::no_targets                0                       # number of cycles access was blocked
system.l2.blocked::no_mshrs                         0                       # number of cycles access was blocked
system.l2.blocked::no_targets                       0                       # number of cycles access was blocked
system.l2.avg_blocked_cycles::no_mshrs            nan                       # average number of cycles each access was blocked
system.l2.avg_blocked_cycles::no_targets          nan                       # average number of cycles each access was blocked
system.l2.writebacks::.writebacks               68658                       # number of writebacks
system.l2.writebacks::total                     68658                       # number of writebacks
system.l2.demand_mshr_hits::.cpu.data               3                       # number of demand (read+write) MSHR hits
system.l2.demand_mshr_hits::total                   3                       # number of demand (read+write) MSHR hits
system.l2.overall_mshr_hits::.cpu.data              3                       # number of overall MSHR hits
system.l2.overall_mshr_hits::total                  3                       # number of overall MSHR hits
system.l2.demand_mshr_misses::.cpu.inst           518                       # number of demand (read+write) MSHR misses
system.l2.demand_mshr_misses::.cpu.data        119686                       # number of demand (read+write) MSHR misses
system.l2.demand_mshr_misses::total            120204                       # number of demand (read+write) MSHR misses
system.l2.overall_mshr_misses::.cpu.inst          518                       # number of overall MSHR misses
system.l2.overall_mshr_misses::.cpu.data       119686                       # number of overall MSHR misses
system.l2.overall_mshr_misses::total           120204                       # number of overall MSHR misses
system.l2.demand_mshr_miss_latency::.cpu.inst     34793500                       # number of demand (read+write) MSHR miss cycles
system.l2.demand_mshr_miss_latency::.cpu.data   8741132000                       # number of demand (read+write) MSHR miss cycles
system.l2.demand_mshr_miss_latency::total   8775925500                       # number of demand (read+write) MSHR miss cycles
system.l2.overall_mshr_miss_latency::.cpu.inst     34793500                       # number of overall MSHR miss cycles
system.l2.overall_mshr_miss_latency::.cpu.data   8741132000                       # number of overall MSHR miss cycles
system.l2.overall_mshr_miss_latency::total   8775925500                       # number of overall MSHR miss cycles
system.l2.demand_mshr_miss_rate::.cpu.inst     0.971857                       # mshr miss rate for demand accesses
system.l2.demand_mshr_miss_rate::.cpu.data     0.998257                       # mshr miss rate for demand accesses
system.l2.demand_mshr_miss_rate::total       0.998140                       # mshr miss rate for demand accesses
system.l2.overall_mshr_miss_rate::.cpu.inst     0.971857                       # mshr miss rate for overall accesses
system.l2.overall_mshr_miss_rate::.cpu.data     0.998257                       # mshr miss rate for overall accesses
system.l2.overall_mshr_miss_rate::total      0.998140                       # mshr miss rate for overall accesses
system.l2.demand_avg_mshr_miss_latency::.cpu.inst 67168.918919                       # average overall mshr miss latency
system.l2.demand_avg_mshr_miss_latency::.cpu.data 73033.871965                       # average overall mshr miss latency
system.l2.demand_avg_mshr_miss_latency::total 73008.597884                       # average overall mshr miss latency
system.l2.overall_avg_mshr_miss_latency::.cpu.inst 67168.918919                       # average overall mshr miss latency
system.l2.overall_avg_mshr_miss_latency::.cpu.data 73033.871965                       # average overall mshr miss latency
system.l2.overall_avg_mshr_miss_latency::total 73008.597884                       # average overall mshr miss latency
system.l2.replacements                         112013                       # number of replacements
system.l2.WritebackDirty_hits::.writebacks        69188                       # number of WritebackDirty hits
system.l2.WritebackDirty_hits::total            69188                       # number of WritebackDirty hits
system.l2.WritebackDirty_accesses::.writebacks        69188                       # number of WritebackDirty accesses(hits+misses)
system.l2.WritebackDirty_accesses::total        69188                       # number of WritebackDirty accesses(hits+misses)
system.l2.ReadExReq_misses::.cpu.data           70246                       # number of ReadExReq misses
system.l2.ReadExReq_misses::total               70246                       # number of ReadExReq misses
system.l2.ReadExReq_miss_latency::.cpu.data   6093656500                       # number of ReadExReq miss cycles
system.l2.ReadExReq_miss_latency::total    6093656500                       # number of ReadExReq miss cycles
system.l2.ReadExReq_accesses::.cpu.data         70246                       # number of ReadExReq accesses(hits+misses)
system.l2.ReadExReq_accesses::total             70246                       # number of ReadExReq accesses(hits+misses)
system.l2.ReadExReq_miss_rate::.cpu.data            1                       # miss rate for ReadExReq accesses
system.l2.ReadExReq_miss_rate::total                1                       # miss rate for ReadExReq accesses
system.l2.ReadExReq_avg_miss_latency::.cpu.data 86747.380634                       # average ReadExReq miss latency
system.l2.ReadExReq_avg_miss_latency::total 86747.380634                       # average ReadExReq miss latency
system.l2.ReadExReq_mshr_misses::.cpu.data        70246                       # number of ReadExReq MSHR misses
system.l2.ReadExReq_mshr_misses::total          70246                       # number of ReadExReq MSHR misses
system.l2.ReadExReq_mshr_miss_latency::.cpu.data   5391196500                       # number of ReadExReq MSHR miss cycles
system.l2.ReadExReq_mshr_miss_latency::total   5391196500                       # number of ReadExReq MSHR miss cycles
system.l2.ReadExReq_mshr_miss_rate::.cpu.data            1                       # mshr miss rate for ReadExReq accesses
system.l2.ReadExReq_mshr_miss_rate::total            1                       # mshr miss rate for ReadExReq accesses
system.l2.ReadExReq_avg_mshr_miss_latency::.cpu.data 76747.380634                       # average ReadExReq mshr miss latency
system.l2.ReadExReq_avg_mshr_miss_latency::total 76747.380634                       # average ReadExReq mshr miss latency
system.l2.ReadCleanReq_hits::.cpu.inst             15                       # number of ReadCleanReq hits
system.l2.ReadCleanReq_hits::total                 15                       # number of ReadCleanReq hits
system.l2.ReadCleanReq_misses::.cpu.inst          518                       # number of ReadCleanReq misses
system.l2.ReadCleanReq_misses::total              518                       # number of ReadCleanReq misses
system.l2.ReadCleanReq_miss_latency::.cpu.inst     39973500                       # number of ReadCleanReq miss cycles
system.l2.ReadCleanReq_miss_latency::total     39973500                       # number of ReadCleanReq miss cycles
system.l2.ReadCleanReq_accesses::.cpu.inst          533                       # number of ReadCleanReq accesses(hits+misses)
system.l2.ReadCleanReq_accesses::total            533                       # number of ReadCleanReq accesses(hits+misses)
system.l2.ReadCleanReq_miss_rate::.cpu.inst     0.971857                       # miss rate for ReadCleanReq accesses
system.l2.ReadCleanReq_miss_rate::total      0.971857                       # miss rate for ReadCleanReq accesses
system.l2.ReadCleanReq_avg_miss_latency::.cpu.inst 77168.918919                       # average ReadCleanReq miss latency
system.l2.ReadCleanReq_avg_miss_latency::total 77168.918919                       # average ReadCleanReq miss latency
system.l2.ReadCleanReq_mshr_misses::.cpu.inst          518                       # number of ReadCleanReq MSHR misses
system.l2.ReadCleanReq_mshr_misses::total          518                       # number of ReadCleanReq MSHR misses
system.l2.ReadCleanReq_mshr_miss_latency::.cpu.inst     34793500                       # number of ReadCleanReq MSHR miss cycles
system.l2.ReadCleanReq_mshr_miss_latency::total     34793500                       # number of ReadCleanReq MSHR miss cycles
system.l2.ReadCleanReq_mshr_miss_rate::.cpu.inst     0.971857                       # mshr miss rate for ReadCleanReq accesses
system.l2.ReadCleanReq_mshr_miss_rate::total     0.971857                       # mshr miss rate for ReadCleanReq accesses
system.l2.ReadCleanReq_avg_mshr_miss_latency::.cpu.inst 67168.918919                       # average ReadCleanReq mshr miss latency
system.l2.ReadCleanReq_avg_mshr_miss_latency::total 67168.918919                       # average ReadCleanReq mshr miss latency
system.l2.ReadSharedReq_hits::.cpu.data           206                       # number of ReadSharedReq hits
system.l2.ReadSharedReq_hits::total               206                       # number of ReadSharedReq hits
system.l2.ReadSharedReq_misses::.cpu.data        49443                       # number of ReadSharedReq misses
system.l2.ReadSharedReq_misses::total           49443                       # number of ReadSharedReq misses
system.l2.ReadSharedReq_miss_latency::.cpu.data   3844533500                       # number of ReadSharedReq miss cycles
system.l2.ReadSharedReq_miss_latency::total   3844533500                       # number of ReadSharedReq miss cycles
system.l2.ReadSharedReq_accesses::.cpu.data        49649                       # number of ReadSharedReq accesses(hits+misses)
system.l2.ReadSharedReq_accesses::total         49649                       # number of ReadSharedReq accesses(hits+misses)
system.l2.ReadSharedReq_miss_rate::.cpu.data     0.995851                       # miss rate for ReadSharedReq accesses
system.l2.ReadSharedReq_miss_rate::total     0.995851                       # miss rate for ReadSharedReq accesses
system.l2.ReadSharedReq_avg_miss_latency::.cpu.data 77756.881662                       # average ReadSharedReq miss latency
system.l2.ReadSharedReq_avg_miss_latency::total 77756.881662                       # average ReadSharedReq miss latency
system.l2.ReadSharedReq_mshr_hits::.cpu.data            3                       # number of ReadSharedReq MSHR hits
system.l2.ReadSharedReq_mshr_hits::total            3                       # number of ReadSharedReq MSHR hits
system.l2.ReadSharedReq_mshr_misses::.cpu.data        49440                       # number of ReadSharedReq MSHR misses
system.l2.ReadSharedReq_mshr_misses::total        49440                       # number of ReadSharedReq MSHR misses
system.l2.ReadSharedReq_mshr_miss_latency::.cpu.data   3349935500                       # number of ReadSharedReq MSHR miss cycles
system.l2.ReadSharedReq_mshr_miss_latency::total   3349935500                       # number of ReadSharedReq MSHR miss cycles
system.l2.ReadSharedReq_mshr_miss_rate::.cpu.data     0.995790                       # mshr miss rate for ReadSharedReq accesses
system.l2.ReadSharedReq_mshr_miss_rate::total     0.995790                       # mshr miss rate for ReadSharedReq accesses
system.l2.ReadSharedReq_avg_mshr_miss_latency::.cpu.data 67757.595065                       # average ReadSharedReq mshr miss latency
system.l2.ReadSharedReq_avg_mshr_miss_latency::total 67757.595065                       # average ReadSharedReq mshr miss latency
system.l2.tags.pwrStateResidencyTicks::UNDEFINED  13606519500                       # Cumulative time (in ticks) in various power states
system.l2.tags.tagsinuse                  7228.780509                       # Cycle average of tags in use
system.l2.tags.total_refs                      238236                       # Total number of references to valid blocks.
system.l2.tags.sampled_refs                    120205                       # Sample count of references to valid blocks.
system.l2.tags.avg_refs                      1.981914                       # Average number of references to valid blocks.
system.l2.tags.warmup_cycle                     77000                       # Cycle when the warmup percentage was hit.
system.l2.tags.occ_blocks::.writebacks       0.153530                       # Average occupied blocks per requestor
system.l2.tags.occ_blocks::.cpu.inst        90.515364                       # Average occupied blocks per requestor
system.l2.tags.occ_blocks::.cpu.data      7138.111615                       # Average occupied blocks per requestor
system.l2.tags.occ_percent::.writebacks      0.000019                       # Average percentage of cache occupancy
system.l2.tags.occ_percent::.cpu.inst        0.011049                       # Average percentage of cache occupancy
system.l2.tags.occ_percent::.cpu.data        0.871352                       # Average percentage of cache occupancy
system.l2.tags.occ_percent::total            0.882419                       # Average percentage of cache occupancy
system.l2.tags.occ_task_id_blocks::1024          8192                       # Occupied blocks per task id
system.l2.tags.age_task_id_blocks_1024::0            2                       # Occupied blocks per task id
system.l2.tags.age_task_id_blocks_1024::1           19                       # Occupied blocks per task id
system.l2.tags.age_task_id_blocks_1024::2          341                       # Occupied blocks per task id
system.l2.tags.age_task_id_blocks_1024::3         7830                       # Occupied blocks per task id
system.l2.tags.occ_task_id_percent::1024            1                       # Percentage of cache occupancy per task id
system.l2.tags.tag_accesses                   2026117                       # Number of tag accesses
system.l2.tags.data_accesses                  2026117                       # Number of data accesses
system.cpu_voltage_domain.voltage                   1                       # Voltage in Volts
system.mem_ctrls.pwrStateResidencyTicks::UNDEFINED  13606519500                       # Cumulative time (in ticks) in various power states
system.mem_ctrls.bytes_read::.cpu.inst          33152                       # Number of bytes read from this memory
system.mem_ctrls.bytes_read::.cpu.data        7659904                       # Number of bytes read from this memory
system.mem_ctrls.bytes_read::total            7693056                       # Number of bytes read from this memory
system.mem_ctrls.bytes_inst_read::.cpu.inst        33152                       # Number of instructions bytes read from this memory
system.mem_ctrls.bytes_inst_read::total         33152                       # Number of instructions bytes read from this memory
system.mem_ctrls.bytes_written::.writebacks      4394112                       # Number of bytes written to this memory
system.mem_ctrls.bytes_written::total         4394112                       # Number of bytes written to this memory
system.mem_ctrls.num_reads::.cpu.inst             518                       # Number of read requests responded to by this memory
system.mem_ctrls.num_reads::.cpu.data          119686                       # Number of read requests responded to by this memory
system.mem_ctrls.num_reads::total              120204                       # Number of read requests responded to by this memory
system.mem_ctrls.num_writes::.writebacks        68658                       # Number of write requests responded to by this memory
system.mem_ctrls.num_writes::total              68658                       # Number of write requests responded to by this memory
system.mem_ctrls.bw_read::.cpu.inst           2436479                       # Total read bandwidth from this memory (bytes/s)
system.mem_ctrls.bw_read::.cpu.data         562958367                       # Total read bandwidth from this memory (bytes/s)
system.mem_ctrls.bw_read::total             565394846                       # Total read bandwidth from this memory (bytes/s)
system.mem_ctrls.bw_inst_read::.cpu.inst      2436479                       # Instruction read bandwidth from this memory (bytes/s)
system.mem_ctrls.bw_inst_read::total          2436479                       # Instruction read bandwidth from this memory (bytes/s)
system.mem_ctrls.bw_write::.writebacks      322941660                       # Write bandwidth from this memory (bytes/s)
system.mem_ctrls.bw_write::total            322941660                       # Write bandwidth from this memory (bytes/s)
system.mem_ctrls.bw_total::.writebacks      322941660                       # Total bandwidth to/from this memory (bytes/s)
system.mem_ctrls.bw_total::.cpu.inst          2436479                       # Total bandwidth to/from this memory (bytes/s)
system.mem_ctrls.bw_total::.cpu.data        562958367                       # Total bandwidth to/from this memory (bytes/s)
system.mem_ctrls.bw_total::total            888336507                       # Total bandwidth to/from this memory (bytes/s)
system.mem_ctrls.avgPriority_.writebacks::samples     68658.00                       # Average QoS priority value for accepted requests
system.mem_ctrls.avgPriority_.cpu.inst::samples       518.00                       # Average QoS priority value for accepted requests
system.mem_ctrls.avgPriority_.cpu.data::samples    119686.00                       # Average QoS priority value for accepted requests
system.mem_ctrls.priorityMinLatency      0.000000018750                       # per QoS priority minimum request to response latency (s)
system.mem_ctrls.priorityMaxLatency      0.007373806500                       # per QoS priority maximum request to response latency (s)
system.mem_ctrls.numReadWriteTurnArounds         4287                       # Number of turnarounds from READ to WRITE
system.mem_ctrls.numWriteReadTurnArounds         4287                       # Number of turnarounds from WRITE to READ
system.mem_ctrls.numStayReadState              303411                       # Number of times bus staying in READ state
system.mem_ctrls.numStayWriteState              64472                       # Number of times bus staying in WRITE state
system.mem_ctrls.readReqs                      120204                       # Number of read requests accepted
system.mem_ctrls.writeReqs                      68658                       # Number of write requests accepted
system.mem_ctrls.readBursts                    120204                       # Number of DRAM read bursts, including those serviced by the write queue
system.mem_ctrls.writeBursts                    68658                       # Number of DRAM write bursts, including those merged in the write queue
system.mem_ctrls.servicedByWrQ                      0                       # Number of DRAM read bursts serviced by the write queue
system.mem_ctrls.mergedWrBursts                     0                       # Number of DRAM write bursts merged with an existing one
system.mem_ctrls.neitherReadNorWriteReqs            0                       # Number of requests that are neither read nor write
system.mem_ctrls.perBankRdBursts::0              7692                       # Per bank write bursts
system.mem_ctrls.perBankRdBursts::1              7595                       # Per bank write bursts
system.mem_ctrls.perBankRdBursts::2              7576                       # Per bank write bursts
system.mem_ctrls.perBankRdBursts::3              7494                       # Per bank write bursts
system.mem_ctrls.perBankRdBursts::4              7561                       # Per bank write bursts
system.mem_ctrls.perBankRdBursts::5              7482                       # Per bank write bursts
system.mem_ctrls.perBankRdBursts::6              7493                       # Per bank write bursts
system.mem_ctrls.perBankRdBursts::7              7643                       # Per bank write bursts
system.mem_ctrls.perBankRdBursts::8              7482                       # Per bank write bursts
system.mem_ctrls.perBankRdBursts::9              7416                       # Per bank write bursts
system.mem_ctrls.perBankRdBursts::10             7438                       # Per bank write bursts
system.mem_ctrls.perBankRdBursts::11             7425                       # Per bank write bursts
system.mem_ctrls.perBankRdBursts::12             7500                       # Per bank write bursts
system.mem_ctrls.perBankRdBursts::13             7470                       # Per bank write bursts
system.mem_ctrls.perBankRdBursts::14             7449                       # Per bank write bursts
system.mem_ctrls.perBankRdBursts::15             7488                       # Per bank write bursts
system.mem_ctrls.perBankWrBursts::0              4352                       # Per bank write bursts
system.mem_ctrls.perBankWrBursts::1              4355                       # Per bank write bursts
system.mem_ctrls.perBankWrBursts::2              4387                       # Per bank write bursts
system.mem_ctrls.perBankWrBursts::3              4364                       # Per bank write bursts
system.mem_ctrls.perBankWrBursts::4              4382                       # Per bank write bursts
system.mem_ctrls.perBankWrBursts::5              4367                       # Per bank write bursts
system.mem_ctrls.perBankWrBursts::6              4296                       # Per bank write bursts
system.mem_ctrls.perBankWrBursts::7              4294                       # Per bank write bursts
system.mem_ctrls.perBankWrBursts::8              4225                       # Per bank write bursts
system.mem_ctrls.perBankWrBursts::9              4224                       # Per bank write bursts
system.mem_ctrls.perBankWrBursts::10             4224                       # Per bank write bursts
system.mem_ctrls.perBankWrBursts::11             4224                       # Per bank write bursts
system.mem_ctrls.perBankWrBursts::12             4224                       # Per bank write bursts
system.mem_ctrls.perBankWrBursts::13             4224                       # Per bank write bursts
system.mem_ctrls.perBankWrBursts::14             4224                       # Per bank write bursts
system.mem_ctrls.perBankWrBursts::15             4265                       # Per bank write bursts
system.mem_ctrls.avgRdQLen                       1.39                       # Average read queue length when enqueuing
system.mem_ctrls.avgWrQLen                      22.49                       # Average write queue length when enqueuing
system.mem_ctrls.totQLat                   1564479750                       # Total ticks spent queuing
system.mem_ctrls.totBusLat                  601020000                       # Total ticks spent in databus transfers
system.mem_ctrls.totMemAccLat              3818304750                       # Total ticks spent from burst creation until serviced by the DRAM
system.mem_ctrls.avgQLat                     13015.21                       # Average queueing delay per DRAM burst
system.mem_ctrls.avgBusLat                    5000.00                       # Average bus latency per DRAM burst
system.mem_ctrls.avgMemAccLat                31765.21                       # Average memory access latency per DRAM burst
system.mem_ctrls.numRdRetry                         0                       # Number of times read queue was full causing retry
system.mem_ctrls.numWrRetry                         0                       # Number of times write queue was full causing retry
system.mem_ctrls.readRowHits                   107612                       # Number of row buffer hits during reads
system.mem_ctrls.writeRowHits                   61351                       # Number of row buffer hits during writes
system.mem_ctrls.readRowHitRate                 89.52                       # Row buffer hit rate for reads
system.mem_ctrls.writeRowHitRate                89.36                       # Row buffer hit rate for writes
system.mem_ctrls.readPktSize::0                     0                       # Read request sizes (log2)
system.mem_ctrls.readPktSize::1                     0                       # Read request sizes (log2)
system.mem_ctrls.readPktSize::2                     0                       # Read request sizes (log2)
system.mem_ctrls.readPktSize::3                     0                       # Read request sizes (log2)
system.mem_ctrls.readPktSize::4                     0                       # Read request sizes (log2)
system.mem_ctrls.readPktSize::5                     0                       # Read request sizes (log2)
system.mem_ctrls.readPktSize::6                120204                       # Read request sizes (log2)
system.mem_ctrls.writePktSize::0                    0                       # Write request sizes (log2)
system.mem_ctrls.writePktSize::1                    0                       # Write request sizes (log2)
system.mem_ctrls.writePktSize::2                    0                       # Write request sizes (log2)
system.mem_ctrls.writePktSize::3                    0                       # Write request sizes (log2)
system.mem_ctrls.writePktSize::4                    0                       # Write request sizes (log2)
system.mem_ctrls.writePktSize::5                    0                       # Write request sizes (log2)
system.mem_ctrls.writePktSize::6                68658                       # Write request sizes (log2)
system.mem_ctrls.rdQLenPdf::0                   66823                       # What read queue length does an incoming req see
system.mem_ctrls.rdQLenPdf::1                   52741                       # What read queue length does an incoming req see
system.mem_ctrls.rdQLenPdf::2                     557                       # What read queue length does an incoming req see
system.mem_ctrls.rdQLenPdf::3                      82                       # What read queue length does an incoming req see
system.mem_ctrls.rdQLenPdf::4                       1                       # What read queue length does an incoming req see
system.mem_ctrls.rdQLenPdf::5                       0                       # What read queue length does an incoming req see
system.mem_ctrls.rdQLenPdf::6                       0                       # What read queue length does an incoming req see
system.mem_ctrls.rdQLenPdf::7                       0                       # What read queue length does an incoming req see
system.mem_ctrls.rdQLenPdf::8                       0                       # What read queue length does an incoming req see
system.mem_ctrls.rdQLenPdf::9                       0                       # What read queue length does an incoming req see
system.mem_ctrls.rdQLenPdf::10                      0                       # What read queue length does an incoming req see
system.mem_ctrls.rdQLenPdf::11                      0                       # What read queue length does an incoming req see
system.mem_ctrls.rdQLenPdf::12                      0                       # What read queue length does an incoming req see
system.mem_ctrls.rdQLenPdf::13                      0                       # What read queue length does an incoming req see
system.mem_ctrls.rdQLenPdf::14                      0                       # What read queue length does an incoming req see
system.mem_ctrls.rdQLenPdf::15                      0                       # What read queue length does an incoming req see
system.mem_ctrls.rdQLenPdf::16                      0                       # What read queue length does an incoming req see
system.mem_ctrls.rdQLenPdf::17                      0                       # What read queue length does an incoming req see
system.mem_ctrls.rdQLenPdf::18                      0                       # What read queue length does an incoming req see
system.mem_ctrls.rdQLenPdf::19                      0                       # What read queue length does an incoming req see
system.mem_ctrls.rdQLenPdf::20                      0                       # What read queue length does an incoming req see
system.mem_ctrls.rdQLenPdf::21                      0                       # What read queue length does an incoming req see
system.mem_ctrls.rdQLenPdf::22                      0                       # What read queue length does an incoming req see
system.mem_ctrls.rdQLenPdf::23                      0                       # What read queue length does an incoming req see
system.mem_ctrls.rdQLenPdf::24                      0                       # What read queue length does an incoming req see
system.mem_ctrls.rdQLenPdf::25                      0                       # What read queue length does an incoming req see
system.mem_ctrls.rdQLenPdf::26                      0                       # What read queue length does an incoming req see
system.mem_ctrls.rdQLenPdf::27                      0                       # What read queue length does an incoming req see
system.mem_ctrls.rdQLenPdf::28                      0                       # What read queue length does an incoming req see
system.mem_ctrls.rdQLenPdf::29                      0                       # What read queue length does an incoming req see
system.mem_ctrls.rdQLenPdf::30                      0                       # What read queue length does an incoming req see
system.mem_ctrls.rdQLenPdf::31                      0                       # What read queue length does an incoming req see
system.mem_ctrls.wrQLenPdf::0                       1                       # What write queue length does an incoming req see
system.mem_ctrls.wrQLenPdf::1                       1                       # What write queue length does an incoming req see
system.mem_ctrls.wrQLenPdf::2                       1                       # What write queue length does an incoming req see
system.mem_ctrls.wrQLenPdf::3                       1                       # What write queue length does an incoming req see
system.mem_ctrls.wrQLenPdf::4                       1                       # What write queue length does an incoming req see
system.mem_ctrls.wrQLenPdf::5                       1                       # What write queue length does an incoming req see
system.mem_ctrls.wrQLenPdf::6                       1                       # What write queue length does an incoming req see
system.mem_ctrls.wrQLenPdf::7                       1                       # What write queue length does an incoming req see
system.mem_ctrls.wrQLenPdf::8                       1                       # What write queue length does an incoming req see
system.mem_ctrls.wrQLenPdf::9                       1                       # What write queue length does an incoming req see
system.mem_ctrls.wrQLenPdf::10                      1                       # What write queue length does an incoming req see
system.mem_ctrls.wrQLenPdf::11                      1                       # What write queue length does an incoming req see
system.mem_ctrls.wrQLenPdf::12                      1                       # What write queue length does an incoming req see
system.mem_ctrls.wrQLenPdf::13                      1                       # What write queue length does an incoming req see
system.mem_ctrls.wrQLenPdf::14                      1                       # What write queue length does an incoming req see
system.mem_ctrls.wrQLenPdf::15                     12                       # What write queue length does an incoming req see
system.mem_ctrls.wrQLenPdf::16                     12                       # What write queue length does an incoming req see
system.mem_ctrls.wrQLenPdf::17                   3542                       # What write queue length does an incoming req see
system.mem_ctrls.wrQLenPdf::18                   4318                       # What write queue length does an incoming req see
system.mem_ctrls.wrQLenPdf::19                   4291                       # What write queue length does an incoming req see
system.mem_ctrls.wrQLenPdf::20                   4404                       # What write queue length does an incoming req see
system.mem_ctrls.wrQLenPdf::21                   4288                       # What write queue length does an incoming req see
system.mem_ctrls.wrQLenPdf::22                   4299                       # What write queue length does an incoming req see
system.mem_ctrls.wrQLenPdf::23                   4296                       # What write queue length does an incoming req see
system.mem_ctrls.wrQLenPdf::24                   4289                       # What write queue length does an incoming req see
system.mem_ctrls.wrQLenPdf::25                   4351                       # What write queue length does an incoming req see
system.mem_ctrls.wrQLenPdf::26                   4323                       # What write queue length does an incoming req see
system.mem_ctrls.wrQLenPdf::27                   4287                       # What write queue length does an incoming req see
system.mem_ctrls.wrQLenPdf::28                   4773                       # What write queue length does an incoming req see
system.mem_ctrls.wrQLenPdf::29                   4296                       # What write queue length does an incoming req see
system.mem_ctrls.wrQLenPdf::30                   4287                       # What write queue length does an incoming req see
system.mem_ctrls.wrQLenPdf::31                   4287                       # What write queue length does an incoming req see
system.mem_ctrls.wrQLenPdf::32                   4287                       # What write queue length does an incoming req see
system.mem_ctrls.wrQLenPdf::33                      1                       # What write queue length does an incoming req see
system.mem_ctrls.wrQLenPdf::34                      0                       # What write queue length does an incoming req see
system.mem_ctrls.wrQLenPdf::35                      0                       # What write queue length does an incoming req see
system.mem_ctrls.wrQLenPdf::36                      0                       # What write queue length does an incoming req see
system.mem_ctrls.wrQLenPdf::37                      0                       # What write queue length does an incoming req see
system.mem_ctrls.wrQLenPdf::38                      0                       # What write queue length does an incoming req see
system.mem_ctrls.wrQLenPdf::39                      0                       # What write queue length does an incoming req see
system.mem_ctrls.wrQLenPdf::40                      0                       # What write queue length does an incoming req see
system.mem_ctrls.wrQLenPdf::41                      0                       # What write queue length does an incoming req see
system.mem_ctrls.wrQLenPdf::42                      0                       # What write queue length does an incoming req see
system.mem_ctrls.wrQLenPdf::43                      0                       # What write queue length does an incoming req see
system.mem_ctrls.wrQLenPdf::44                      0                       # What write queue length does an incoming req see
system.mem_ctrls.wrQLenPdf::45                      0                       # What write queue length does an incoming req see
system.mem_ctrls.wrQLenPdf::46                      0                       # What write queue length does an incoming req see
system.mem_ctrls.wrQLenPdf::47                      0                       # What write queue length does an incoming req see
system.mem_ctrls.wrQLenPdf::48                      0                       # What write queue length does an incoming req see
system.mem_ctrls.wrQLenPdf::49                      0                       # What write queue length does an incoming req see
system.mem_ctrls.wrQLenPdf::50                      0                       # What write queue length does an incoming req see
system.mem_ctrls.wrQLenPdf::51                      0                       # What write queue length does an incoming req see
system.mem_ctrls.wrQLenPdf::52                      0                       # What write queue length does an incoming req see
system.mem_ctrls.wrQLenPdf::53                      0                       # What write queue length does an incoming req see
system.mem_ctrls.wrQLenPdf::54                      0                       # What write queue length does an incoming req see
system.mem_ctrls.wrQLenPdf::55                      0                       # What write queue length does an incoming req see
system.mem_ctrls.wrQLenPdf::56                      0                       # What write queue length does an incoming req see
system.mem_ctrls.wrQLenPdf::57                      0                       # What write queue length does an incoming req see
system.mem_ctrls.wrQLenPdf::58                      0                       # What write queue length does an incoming req see
system.mem_ctrls.wrQLenPdf::59                      0                       # What write queue length does an incoming req see
system.mem_ctrls.wrQLenPdf::60                      0                       # What write queue length does an incoming req see
system.mem_ctrls.wrQLenPdf::61                      0                       # What write queue length does an incoming req see
system.mem_ctrls.wrQLenPdf::62                      0                       # What write queue length does an incoming req see
system.mem_ctrls.wrQLenPdf::63                      0                       # What write queue length does an incoming req see
system.mem_ctrls.bytesPerActivate::samples        19872                       # Bytes accessed per row activation
system.mem_ctrls.bytesPerActivate::mean    608.164251                       # Bytes accessed per row activation
system.mem_ctrls.bytesPerActivate::gmean   502.790073                       # Bytes accessed per row activation
system.mem_ctrls.bytesPerActivate::stdev   305.561770                       # Bytes accessed per row activation
system.mem_ctrls.bytesPerActivate::0-127         1027      5.17%      5.17% # Bytes accessed per row activation
system.mem_ctrls.bytesPerActivate::128-255         1585      7.98%     13.14% # Bytes accessed per row activation
system.mem_ctrls.bytesPerActivate::256-383          796      4.01%     17.15% # Bytes accessed per row activation
system.mem_ctrls.bytesPerActivate::384-511          855      4.30%     21.45% # Bytes accessed per row activation
system.mem_ctrls.bytesPerActivate::512-639         8832     44.44%     65.90% # Bytes accessed per row activation
system.mem_ctrls.bytesPerActivate::640-767          465      2.34%     68.24% # Bytes accessed per row activation
system.mem_ctrls.bytesPerActivate::768-895          383      1.93%     70.16% # Bytes accessed per row activation
system.mem_ctrls.bytesPerActivate::896-1023          313      1.58%     71.74% # Bytes accessed per row activation
system.mem_ctrls.bytesPerActivate::1024-1151         5616     28.26%    100.00% # Bytes accessed per row activation
system.mem_ctrls.bytesPerActivate::total        19872                       # Bytes accessed per row activation
system.mem_ctrls.rdPerTurnAround::samples         4287                       # Reads before turning the bus around for writes
system.mem_ctrls.rdPerTurnAround::mean      27.894332                       # Reads before turning the bus around for writes
system.mem_ctrls.rdPerTurnAround::gmean     23.969520                       # Reads before turning the bus around for writes
system.mem_ctrls.rdPerTurnAround::stdev     40.126850                       # Reads before turning the bus around for writes
system.mem_ctrls.rdPerTurnAround::0-63           4233     98.74%     98.74% # Reads before turning the bus around for writes
system.mem_ctrls.rdPerTurnAround::64-127           12      0.28%     99.02% # Reads before turning the bus around for writes
system.mem_ctrls.rdPerTurnAround::128-191            5      0.12%     99.14% # Reads before turning the bus around for writes
system.mem_ctrls.rdPerTurnAround::192-255            5      0.12%     99.25% # Reads before turning the bus around for writes
system.mem_ctrls.rdPerTurnAround::256-319           25      0.58%     99.84% # Reads before turning the bus around for writes
system.mem_ctrls.rdPerTurnAround::320-383            1      0.02%     99.86% # Reads before turning the bus around for writes
system.mem_ctrls.rdPerTurnAround::512-575            1      0.02%     99.88% # Reads before turning the bus around for writes
system.mem_ctrls.rdPerTurnAround::704-767            2      0.05%     99.93% # Reads before turning the bus around for writes
system.mem_ctrls.rdPerTurnAround::832-895            1      0.02%     99.95% # Reads before turning the bus around for writes
system.mem_ctrls.rdPerTurnAround::960-1023            1      0.02%     99.98% # Reads before turning the bus around for writes
system.mem_ctrls.rdPerTurnAround::1408-1471            1      0.02%    100.00% # Reads before turning the bus around for writes
system.mem_ctrls.rdPerTurnAround::total          4287                       # Reads before turning the bus around for writes
system.mem_ctrls.wrPerTurnAround::samples         4287                       # Writes before turning the bus around for reads
system.mem_ctrls.wrPerTurnAround::mean      16.009097                       # Writes before turning the bus around for reads
system.mem_ctrls.wrPerTurnAround::gmean     16.008211                       # Writes before turning the bus around for reads
system.mem_ctrls.wrPerTurnAround::stdev      0.181149                       # Writes before turning the bus around for reads
[...]
system.cpu.icache.ReadReq_avg_miss_latency::total 77821.763602                       # average ReadReq miss latency
system.cpu.icache.ReadReq_mshr_misses::.cpu.inst          533                       # number of ReadReq MSHR misses
system.cpu.icache.ReadReq_mshr_misses::total          533                       # number of ReadReq MSHR misses
system.cpu.icache.ReadReq_mshr_miss_latency::.cpu.inst     40946000                       # number of ReadReq MSHR miss cycles
system.cpu.icache.ReadReq_mshr_miss_latency::total     40946000                       # number of ReadReq MSHR miss cycles
system.cpu.icache.ReadReq_mshr_miss_rate::.cpu.inst     0.000458                       # mshr miss rate for ReadReq accesses
system.cpu.icache.ReadReq_mshr_miss_rate::total     0.000458                       # mshr miss rate for ReadReq accesses
system.cpu.icache.ReadReq_avg_mshr_miss_latency::.cpu.inst 76821.763602                       # average ReadReq mshr miss latency
system.cpu.icache.ReadReq_avg_mshr_miss_latency::total 76821.763602                       # average ReadReq mshr miss latency
system.cpu.icache.tags.pwrStateResidencyTicks::UNDEFINED  13606519500                       # Cumulative time (in ticks) in various power states
system.cpu.icache.tags.tagsinuse           474.211801                       # Cycle average of tags in use
system.cpu.icache.tags.total_refs             1162824                       # Total number of references to valid blocks.
system.cpu.icache.tags.sampled_refs               533                       # Sample count of references to valid blocks.
system.cpu.icache.tags.avg_refs           2181.658537                       # Average number of references to valid blocks.
system.cpu.icache.tags.warmup_cycle             87500                       # Cycle when the warmup percentage was hit.
system.cpu.icache.tags.occ_blocks::.cpu.inst   474.211801                       # Average occupied blocks per requestor
system.cpu.icache.tags.occ_percent::.cpu.inst     0.115774                       # Average percentage of cache occupancy
system.cpu.icache.tags.occ_percent::total     0.115774                       # Average percentage of cache occupancy
system.cpu.icache.tags.occ_task_id_blocks::1024          533                       # Occupied blocks per task id
system.cpu.icache.tags.age_task_id_blocks_1024::3          101                       # Occupied blocks per task id
system.cpu.icache.tags.age_task_id_blocks_1024::4          432                       # Occupied blocks per task id
system.cpu.icache.tags.occ_task_id_percent::1024     0.130127                       # Percentage of cache occupancy per task id
system.cpu.icache.tags.tag_accesses           2326181                       # Number of tag accesses
system.cpu.icache.tags.data_accesses          2326181                       # Number of data accesses
system.cpu.dtb.walker.pwrStateResidencyTicks::UNDEFINED  13606519500                       # Cumulative time (in ticks) in various power states
system.cpu.dtb.stage2_mmu.stage2_tlb.walker.pwrStateResidencyTicks::UNDEFINED  13606519500                       # Cumulative time (in ticks) in various power states
system.cpu.dcache.pwrStateResidencyTicks::UNDEFINED  13606519500                       # Cumulative time (in ticks) in various power states
system.cpu.dcache.demand_hits::.cpu.data      6986071                       # number of demand (read+write) hits
system.cpu.dcache.demand_hits::total          6986071                       # number of demand (read+write) hits
system.cpu.dcache.overall_hits::.cpu.data      6986178                       # number of overall hits
system.cpu.dcache.overall_hits::total         6986178                       # number of overall hits
system.cpu.dcache.demand_misses::.cpu.data       156234                       # number of demand (read+write) misses
system.cpu.dcache.demand_misses::total         156234                       # number of demand (read+write) misses
system.cpu.dcache.overall_misses::.cpu.data       157740                       # number of overall misses
system.cpu.dcache.overall_misses::total        157740                       # number of overall misses
system.cpu.dcache.demand_miss_latency::.cpu.data  10472415500                       # number of demand (read+write) miss cycles
system.cpu.dcache.demand_miss_latency::total  10472415500                       # number of demand (read+write) miss cycles
system.cpu.dcache.overall_miss_latency::.cpu.data  10472415500                       # number of overall miss cycles
system.cpu.dcache.overall_miss_latency::total  10472415500                       # number of overall miss cycles
system.cpu.dcache.demand_accesses::.cpu.data      7142305                       # number of demand (read+write) accesses
system.cpu.dcache.demand_accesses::total      7142305                       # number of demand (read+write) accesses
system.cpu.dcache.overall_accesses::.cpu.data      7143918                       # number of overall (read+write) accesses
system.cpu.dcache.overall_accesses::total      7143918                       # number of overall (read+write) accesses
system.cpu.dcache.demand_miss_rate::.cpu.data     0.021874                       # miss rate for demand accesses
system.cpu.dcache.demand_miss_rate::total     0.021874                       # miss rate for demand accesses
system.cpu.dcache.overall_miss_rate::.cpu.data     0.022080                       # miss rate for overall accesses
system.cpu.dcache.overall_miss_rate::total     0.022080                       # miss rate for overall accesses
system.cpu.dcache.demand_avg_miss_latency::.cpu.data 67030.323105                       # average overall miss latency
system.cpu.dcache.demand_avg_miss_latency::total 67030.323105                       # average overall miss latency
system.cpu.dcache.overall_avg_miss_latency::.cpu.data 66390.360720                       # average overall miss latency
system.cpu.dcache.overall_avg_miss_latency::total 66390.360720                       # average overall miss latency
system.cpu.dcache.blocked_cycles::no_mshrs        34781                       # number of cycles access was blocked
system.cpu.dcache.blocked_cycles::no_targets            0                       # number of cycles access was blocked
system.cpu.dcache.blocked::no_mshrs               576                       # number of cycles access was blocked
system.cpu.dcache.blocked::no_targets               0                       # number of cycles access was blocked
system.cpu.dcache.avg_blocked_cycles::no_mshrs    60.383681                       # average number of cycles each access was blocked
system.cpu.dcache.avg_blocked_cycles::no_targets          nan                       # average number of cycles each access was blocked
system.cpu.dcache.writebacks::.writebacks        69188                       # number of writebacks
system.cpu.dcache.writebacks::total             69188                       # number of writebacks
system.cpu.dcache.demand_mshr_hits::.cpu.data        37839                       # number of demand (read+write) MSHR hits
system.cpu.dcache.demand_mshr_hits::total        37839                       # number of demand (read+write) MSHR hits
system.cpu.dcache.overall_mshr_hits::.cpu.data        37839                       # number of overall MSHR hits
system.cpu.dcache.overall_mshr_hits::total        37839                       # number of overall MSHR hits
system.cpu.dcache.demand_mshr_misses::.cpu.data       118395                       # number of demand (read+write) MSHR misses
system.cpu.dcache.demand_mshr_misses::total       118395                       # number of demand (read+write) MSHR misses
system.cpu.dcache.overall_mshr_misses::.cpu.data       119895                       # number of overall MSHR misses
system.cpu.dcache.overall_mshr_misses::total       119895                       # number of overall MSHR misses
system.cpu.dcache.demand_mshr_miss_latency::.cpu.data  10007185500                       # number of demand (read+write) MSHR miss cycles
system.cpu.dcache.demand_mshr_miss_latency::total  10007185500                       # number of demand (read+write) MSHR miss cycles
system.cpu.dcache.overall_mshr_miss_latency::.cpu.data  10120212999                       # number of overall MSHR miss cycles
system.cpu.dcache.overall_mshr_miss_latency::total  10120212999                       # number of overall MSHR miss cycles
system.cpu.dcache.demand_mshr_miss_rate::.cpu.data     0.016577                       # mshr miss rate for demand accesses
system.cpu.dcache.demand_mshr_miss_rate::total     0.016577                       # mshr miss rate for demand accesses
system.cpu.dcache.overall_mshr_miss_rate::.cpu.data     0.016783                       # mshr miss rate for overall accesses
system.cpu.dcache.overall_mshr_miss_rate::total     0.016783                       # mshr miss rate for overall accesses
system.cpu.dcache.demand_avg_mshr_miss_latency::.cpu.data 84523.717218                       # average overall mshr miss latency
system.cpu.dcache.demand_avg_mshr_miss_latency::total 84523.717218                       # average overall mshr miss latency
system.cpu.dcache.overall_avg_mshr_miss_latency::.cpu.data 84408.966170                       # average overall mshr miss latency
system.cpu.dcache.overall_avg_mshr_miss_latency::total 84408.966170                       # average overall mshr miss latency
system.cpu.dcache.replacements                 117847                       # number of replacements
system.cpu.dcache.ReadReq_hits::.cpu.data      5638639                       # number of ReadReq hits
system.cpu.dcache.ReadReq_hits::total         5638639                       # number of ReadReq hits
system.cpu.dcache.ReadReq_misses::.cpu.data        48159                       # number of ReadReq misses
system.cpu.dcache.ReadReq_misses::total         48159                       # number of ReadReq misses
system.cpu.dcache.ReadReq_miss_latency::.cpu.data   3857056000                       # number of ReadReq miss cycles
system.cpu.dcache.ReadReq_miss_latency::total   3857056000                       # number of ReadReq miss cycles
system.cpu.dcache.ReadReq_accesses::.cpu.data      5686798                       # number of ReadReq accesses(hits+misses)
system.cpu.dcache.ReadReq_accesses::total      5686798                       # number of ReadReq accesses(hits+misses)
system.cpu.dcache.ReadReq_miss_rate::.cpu.data     0.008469                       # miss rate for ReadReq accesses
system.cpu.dcache.ReadReq_miss_rate::total     0.008469                       # miss rate for ReadReq accesses
system.cpu.dcache.ReadReq_avg_miss_latency::.cpu.data 80090.035092                       # average ReadReq miss latency
system.cpu.dcache.ReadReq_avg_miss_latency::total 80090.035092                       # average ReadReq miss latency
system.cpu.dcache.ReadReq_mshr_hits::.cpu.data           10                       # number of ReadReq MSHR hits
system.cpu.dcache.ReadReq_mshr_hits::total           10                       # number of ReadReq MSHR hits
system.cpu.dcache.ReadReq_mshr_misses::.cpu.data        48149                       # number of ReadReq MSHR misses
system.cpu.dcache.ReadReq_mshr_misses::total        48149                       # number of ReadReq MSHR misses
system.cpu.dcache.ReadReq_mshr_miss_latency::.cpu.data   3808160000                       # number of ReadReq MSHR miss cycles
system.cpu.dcache.ReadReq_mshr_miss_latency::total   3808160000                       # number of ReadReq MSHR miss cycles
system.cpu.dcache.ReadReq_mshr_miss_rate::.cpu.data     0.008467                       # mshr miss rate for ReadReq accesses
system.cpu.dcache.ReadReq_mshr_miss_rate::total     0.008467                       # mshr miss rate for ReadReq accesses
system.cpu.dcache.ReadReq_avg_mshr_miss_latency::.cpu.data 79091.154541                       # average ReadReq mshr miss latency
system.cpu.dcache.ReadReq_avg_mshr_miss_latency::total 79091.154541                       # average ReadReq mshr miss latency
system.cpu.dcache.WriteReq_hits::.cpu.data      1347432                       # number of WriteReq hits
system.cpu.dcache.WriteReq_hits::total        1347432                       # number of WriteReq hits
system.cpu.dcache.WriteReq_misses::.cpu.data       108075                       # number of WriteReq misses
system.cpu.dcache.WriteReq_misses::total       108075                       # number of WriteReq misses
system.cpu.dcache.WriteReq_miss_latency::.cpu.data   6615359500                       # number of WriteReq miss cycles
system.cpu.dcache.WriteReq_miss_latency::total   6615359500                       # number of WriteReq miss cycles
system.cpu.dcache.WriteReq_accesses::.cpu.data      1455507                       # number of WriteReq accesses(hits+misses)
system.cpu.dcache.WriteReq_accesses::total      1455507                       # number of WriteReq accesses(hits+misses)
system.cpu.dcache.WriteReq_miss_rate::.cpu.data     0.074252                       # miss rate for WriteReq accesses
system.cpu.dcache.WriteReq_miss_rate::total     0.074252                       # miss rate for WriteReq accesses
system.cpu.dcache.WriteReq_avg_miss_latency::.cpu.data 61210.821189                       # average WriteReq miss latency
system.cpu.dcache.WriteReq_avg_miss_latency::total 61210.821189                       # average WriteReq miss latency
system.cpu.dcache.WriteReq_mshr_hits::.cpu.data        37829                       # number of WriteReq MSHR hits
system.cpu.dcache.WriteReq_mshr_hits::total        37829                       # number of WriteReq MSHR hits
system.cpu.dcache.WriteReq_mshr_misses::.cpu.data        70246                       # number of WriteReq MSHR misses
system.cpu.dcache.WriteReq_mshr_misses::total        70246                       # number of WriteReq MSHR misses
system.cpu.dcache.WriteReq_mshr_miss_latency::.cpu.data   6199025500                       # number of WriteReq MSHR miss cycles
system.cpu.dcache.WriteReq_mshr_miss_latency::total   6199025500                       # number of WriteReq MSHR miss cycles
system.cpu.dcache.WriteReq_mshr_miss_rate::.cpu.data     0.048262                       # mshr miss rate for WriteReq accesses
system.cpu.dcache.WriteReq_mshr_miss_rate::total     0.048262                       # mshr miss rate for WriteReq accesses
system.cpu.dcache.WriteReq_avg_mshr_miss_latency::.cpu.data 88247.380634                       # average WriteReq mshr miss latency
system.cpu.dcache.WriteReq_avg_mshr_miss_latency::total 88247.380634                       # average WriteReq mshr miss latency
system.cpu.dcache.SoftPFReq_hits::.cpu.data          107                       # number of SoftPFReq hits
system.cpu.dcache.SoftPFReq_hits::total           107                       # number of SoftPFReq hits
system.cpu.dcache.SoftPFReq_misses::.cpu.data         1506                       # number of SoftPFReq misses
system.cpu.dcache.SoftPFReq_misses::total         1506                       # number of SoftPFReq misses
system.cpu.dcache.SoftPFReq_accesses::.cpu.data         1613                       # number of SoftPFReq accesses(hits+misses)
system.cpu.dcache.SoftPFReq_accesses::total         1613                       # number of SoftPFReq accesses(hits+misses)
system.cpu.dcache.SoftPFReq_miss_rate::.cpu.data     0.933664                       # miss rate for SoftPFReq accesses
system.cpu.dcache.SoftPFReq_miss_rate::total     0.933664                       # miss rate for SoftPFReq accesses
system.cpu.dcache.SoftPFReq_mshr_misses::.cpu.data         1500                       # number of SoftPFReq MSHR misses
system.cpu.dcache.SoftPFReq_mshr_misses::total         1500                       # number of SoftPFReq MSHR misses
system.cpu.dcache.SoftPFReq_mshr_miss_latency::.cpu.data    113027499                       # number of SoftPFReq MSHR miss cycles
system.cpu.dcache.SoftPFReq_mshr_miss_latency::total    113027499                       # number of SoftPFReq MSHR miss cycles
system.cpu.dcache.SoftPFReq_mshr_miss_rate::.cpu.data     0.929944                       # mshr miss rate for SoftPFReq accesses
system.cpu.dcache.SoftPFReq_mshr_miss_rate::total     0.929944                       # mshr miss rate for SoftPFReq accesses
system.cpu.dcache.SoftPFReq_avg_mshr_miss_latency::.cpu.data 75351.666000                       # average SoftPFReq mshr miss latency
system.cpu.dcache.SoftPFReq_avg_mshr_miss_latency::total 75351.666000                       # average SoftPFReq mshr miss latency
system.cpu.dcache.LoadLockedReq_hits::.cpu.data           38                       # number of LoadLockedReq hits
system.cpu.dcache.LoadLockedReq_hits::total           38                       # number of LoadLockedReq hits
system.cpu.dcache.LoadLockedReq_accesses::.cpu.data           38                       # number of LoadLockedReq accesses(hits+misses)
system.cpu.dcache.LoadLockedReq_accesses::total           38                       # number of LoadLockedReq accesses(hits+misses)
system.cpu.dcache.StoreCondReq_hits::.cpu.data           38                       # number of StoreCondReq hits
system.cpu.dcache.StoreCondReq_hits::total           38                       # number of StoreCondReq hits
system.cpu.dcache.StoreCondReq_accesses::.cpu.data           38                       # number of StoreCondReq accesses(hits+misses)
system.cpu.dcache.StoreCondReq_accesses::total           38                       # number of StoreCondReq accesses(hits+misses)
system.cpu.dcache.tags.pwrStateResidencyTicks::UNDEFINED  13606519500                       # Cumulative time (in ticks) in various power states
system.cpu.dcache.tags.tagsinuse          1830.052223                       # Cycle average of tags in use
system.cpu.dcache.tags.total_refs             7106149                       # Total number of references to valid blocks.
system.cpu.dcache.tags.sampled_refs            119895                       # Sample count of references to valid blocks.
system.cpu.dcache.tags.avg_refs             59.269769                       # Average number of references to valid blocks.
system.cpu.dcache.tags.warmup_cycle            176500                       # Cycle when the warmup percentage was hit.
system.cpu.dcache.tags.occ_blocks::.cpu.data  1830.052223                       # Average occupied blocks per requestor
system.cpu.dcache.tags.occ_percent::.cpu.data     0.893580                       # Average percentage of cache occupancy
system.cpu.dcache.tags.occ_percent::total     0.893580                       # Average percentage of cache occupancy
system.cpu.dcache.tags.occ_task_id_blocks::1024         2048                       # Occupied blocks per task id
system.cpu.dcache.tags.age_task_id_blocks_1024::0            2                       # Occupied blocks per task id
system.cpu.dcache.tags.age_task_id_blocks_1024::1           19                       # Occupied blocks per task id
system.cpu.dcache.tags.age_task_id_blocks_1024::2          341                       # Occupied blocks per task id
system.cpu.dcache.tags.age_task_id_blocks_1024::3         1686                       # Occupied blocks per task id
system.cpu.dcache.tags.occ_task_id_percent::1024            1                       # Percentage of cache occupancy per task id
system.cpu.dcache.tags.tag_accesses          14407883                       # Number of tag accesses
system.cpu.dcache.tags.data_accesses         14407883                       # Number of data accesses
system.cpu.itb.walker.pwrStateResidencyTicks::UNDEFINED  13606519500                       # Cumulative time (in ticks) in various power states
system.cpu.itb.stage2_mmu.stage2_tlb.walker.pwrStateResidencyTicks::UNDEFINED  13606519500                       # Cumulative time (in ticks) in various power states

---------- End Simulation Statistics   ----------
