
---------- Begin Simulation Statistics ----------
final_tick                                19278157500                       # Number of ticks from beginning of simulation (restored from checkpoints and never reset)
host_inst_rate                                  68566                       # Simulator instruction rate (inst/s)
host_mem_usage                                 698080                       # Number of bytes of host memory used
host_op_rate                                    68760                       # Simulator op (including micro ops) rate (op/s)
host_seconds                                   145.85                       # Real time elapsed on the host
host_tick_rate                              132181597                       # Simulator tick rate (ticks/s)
sim_freq                                 1000000000000                       # Frequency of simulated ticks
sim_insts                                    10000000                       # Number of instructions simulated
sim_ops                                      10028308                       # Number of ops (including micro ops) simulated
sim_seconds                                  0.019278                       # Number of seconds simulated
sim_ticks                                 19278157500                       # Number of ticks simulated
system.cpu.branchPred.BTBCorrect                    0                       # Number of correct BTB predictions (this stat may not work properly.
system.cpu.branchPred.BTBHitPct             98.888925                       # BTB Hit Percentage
system.cpu.branchPred.BTBHits                  300296                       # Number of BTB hits
system.cpu.branchPred.BTBLookups               303670                       # Number of BTB lookups
system.cpu.branchPred.RASInCorrect                  5                       # Number of incorrect RAS predictions.
system.cpu.branchPred.condIncorrect              7162                       # Number of conditional branches incorrect
system.cpu.branchPred.condPredicted            603722                       # Number of conditional branches predicted
system.cpu.branchPred.indirectHits                128                       # Number of indirect target hits.
system.cpu.branchPred.indirectLookups             381                       # Number of indirect predictor lookups.
system.cpu.branchPred.indirectMisses              253                       # Number of indirect misses.
system.cpu.branchPred.lookups                  716514                       # Number of BP lookups
system.cpu.branchPred.usedRAS                    6926                       # Number of times the RAS was used to get a target.
system.cpu.branchPredindirectMispredicted          171                       # Number of mispredicted indirect branches.
system.cpu.committedInsts                    10000000                       # Number of instructions committed
system.cpu.committedOps                      10028308                       # Number of ops (including micro ops) committed
system.cpu.cpi                               3.855631                       # CPI: cycles per instruction
system.cpu.discardedOps                         15329                       # Number of ops (including micro ops) which were discarded before commit
system.cpu.dtb.accesses                             0                       # DTB accesses
system.cpu.dtb.align_faults                         0                       # Number of TLB faults due to alignment restrictions
system.cpu.dtb.domain_faults                        0                       # Number of TLB faults due to domain restrictions
system.cpu.dtb.flush_entries                        0                       # Number of entries that have been flushed from TLB
system.cpu.dtb.flush_tlb                            0                       # Number of times complete TLB was flushed
system.cpu.dtb.flush_tlb_asid                       0                       # Number of times TLB was flushed by ASID
system.cpu.dtb.flush_tlb_mva                        0                       # Number of times TLB was flushed by MVA
system.cpu.dtb.flush_tlb_mva_asid                   0                       # Number of times TLB was flushed by MVA & ASID
system.cpu.dtb.hits                                 0                       # DTB hits
system.cpu.dtb.inst_accesses                        0                       # ITB inst accesses
system.cpu.dtb.inst_hits                            0                       # ITB inst hits
system.cpu.dtb.inst_misses                          0                       # ITB inst misses
system.cpu.dtb.misses                               0                       # DTB misses
system.cpu.dtb.perms_faults                         0                       # Number of TLB faults due to permissions restrictions
system.cpu.dtb.prefetch_faults                      0                       # Number of TLB faults due to prefetch
system.cpu.dtb.read_accesses                        0                       # DTB read accesses
system.cpu.dtb.read_hits                            0                       # DTB read hits
system.cpu.dtb.read_misses                          0                       # DTB read misses
system.cpu.dtb.stage2_mmu.stage2_tlb.accesses            0                       # DTB accesses
system.cpu.dtb.stage2_mmu.stage2_tlb.align_faults            0                       # Number of TLB faults due to alignment restrictions
system.cpu.dtb.stage2_mmu.stage2_tlb.domain_faults            0                       # Number of TLB faults due to domain restrictions
system.cpu.dtb.stage2_mmu.stage2_tlb.flush_entries            0                       # Number of entries that have been flushed from TLB
system.cpu.dtb.stage2_mmu.stage2_tlb.flush_tlb            0                       # Number of times complete TLB was flushed
system.cpu.dtb.stage2_mmu.stage2_tlb.flush_tlb_asid            0                       # Number of times TLB was flushed by ASID
system.cpu.dtb.stage2_mmu.stage2_tlb.flush_tlb_mva            0                       # Number of times TLB was flushed by MVA
system.cpu.dtb.stage2_mmu.stage2_tlb.flush_tlb_mva_asid            0                       # Number of times TLB was flushed by MVA & ASID
system.cpu.dtb.stage2_mmu.stage2_tlb.hits            0                       # DTB hits
system.cpu.dtb.stage2_mmu.stage2_tlb.inst_accesses            0                       # ITB inst accesses
system.cpu.dtb.stage2_mmu.stage2_tlb.inst_hits            0                       # ITB inst hits
system.cpu.dtb.stage2_mmu.stage2_tlb.inst_misses            0                       # ITB inst misses
system.cpu.dtb.stage2_mmu.stage2_tlb.misses            0                       # DTB misses
system.cpu.dtb.stage2_mmu.stage2_tlb.perms_faults            0                       # Number of TLB faults due to permissions restrictions
system.cpu.dtb.stage2_mmu.stage2_tlb.prefetch_faults            0                       # Number of TLB faults due to prefetch
system.cpu.dtb.stage2_mmu.stage2_tlb.read_accesses            0                       # DTB read accesses
system.cpu.dtb.stage2_mmu.stage2_tlb.read_hits            0                       # DTB read hits
system.cpu.dtb.stage2_mmu.stage2_tlb.read_misses            0                       # DTB read misses
system.cpu.dtb.stage2_mmu.stage2_tlb.walker.walkRequestOrigin_Requested::Data            0                       # Table walker requests started/completed, data/inst
system.cpu.dtb.stage2_mmu.stage2_tlb.walker.walkRequestOrigin_Requested::Inst            0                       # Table walker requests started/completed, data/inst
system.cpu.dtb.stage2_mmu.stage2_tlb.walker.walkRequestOrigin_Requested::total            0                       # Table walker requests started/completed, data/inst
system.cpu.dtb.stage2_mmu.stage2_tlb.walker.walkRequestOrigin_Completed::Data            0                       # Table walker requests started/completed, data/inst
system.cpu.dtb.stage2_mmu.stage2_tlb.walker.walkRequestOrigin_Completed::Inst            0                       # Table walker requests started/completed, data/inst
system.cpu.dtb.stage2_mmu.stage2_tlb.walker.walkRequestOrigin_Completed::total            0                       # Table walker requests started/completed, data/inst
system.cpu.dtb.stage2_mmu.stage2_tlb.walker.walkRequestOrigin::total            0                       # Table walker requests started/completed, data/inst
system.cpu.dtb.stage2_mmu.stage2_tlb.walker.walks            0                       # Table walker walks requested
system.cpu.dtb.stage2_mmu.stage2_tlb.write_accesses            0                       # DTB write accesses
system.cpu.dtb.stage2_mmu.stage2_tlb.write_hits            0                       # DTB write hits
system.cpu.dtb.stage2_mmu.stage2_tlb.write_misses            0                       # DTB write misses
system.cpu.dtb.walker.walkRequestOrigin_Requested::Data            0                       # Table walker requests started/completed, data/inst
system.cpu.dtb.walker.walkRequestOrigin_Requested::Inst            0                       # Table walker requests started/completed, data/inst
system.cpu.dtb.walker.walkRequestOrigin_Requested::total            0                       # Table walker requests started/completed, data/inst
system.cpu.dtb.walker.walkRequestOrigin_Completed::Data            0                       # Table walker requests started/completed, data/inst
system.cpu.dtb.walker.walkRequestOrigin_Completed::Inst            0                       # Table walker requests started/completed, data/inst
system.cpu.dtb.walker.walkRequestOrigin_Completed::total            0                       # Table walker requests started/completed, data/inst
system.cpu.dtb.walker.walkRequestOrigin::total            0                       # Table walker requests started/completed, data/inst
system.cpu.dtb.walker.walks                         0                       # Table walker walks requested
system.cpu.dtb.write_accesses                       0                       # DTB write accesses
system.cpu.dtb.write_hits                           0                       # DTB write hits
system.cpu.dtb.write_misses                         0                       # DTB write misses
system.cpu.fetch2.amo_instructions                  0                       # Number of memory atomic instructions successfully decoded
system.cpu.fetch2.fp_instructions                   0                       # Number of floating point instructions successfully decoded
system.cpu.fetch2.int_instructions            2168603                       # Number of integer instructions successfully decoded
system.cpu.fetch2.load_instructions           5800730                       # Number of memory load instructions successfully decoded
system.cpu.fetch2.store_instructions          1454232                       # Number of memory store instructions successfully decoded
system.cpu.fetch2.vec_instructions                  0                       # Number of SIMD instructions successfully decoded
system.cpu.idleCycles                        23828332                       # Total number of cycles that the object has spent stopped
system.cpu.ipc                               0.259361                       # IPC: instructions per cycle
system.cpu.itb.accesses                             0                       # DTB accesses
system.cpu.itb.align_faults                         0                       # Number of TLB faults due to alignment restrictions
system.cpu.itb.domain_faults                        0                       # Number of TLB faults due to domain restrictions
system.cpu.itb.flush_entries                        0                       # Number of entries that have been flushed from TLB
system.cpu.itb.flush_tlb                            0                       # Number of times complete TLB was flushed
system.cpu.itb.flush_tlb_asid                       0                       # Number of times TLB was flushed by ASID
system.cpu.itb.flush_tlb_mva                        0                       # Number of times TLB was flushed by MVA
system.cpu.itb.flush_tlb_mva_asid                   0                       # Number of times TLB was flushed by MVA & ASID
system.cpu.itb.hits                                 0                       # DTB hits
system.cpu.itb.inst_accesses                        0                       # ITB inst accesses
system.cpu.itb.inst_hits                            0                       # ITB inst hits
system.cpu.itb.inst_misses                          0                       # ITB inst misses
system.cpu.itb.misses                               0                       # DTB misses
system.cpu.itb.perms_faults                         0                       # Number of TLB faults due to permissions restrictions
system.cpu.itb.prefetch_faults                      0                       # Number of TLB faults due to prefetch
system.cpu.itb.read_accesses                        0                       # DTB read accesses
system.cpu.itb.read_hits                            0                       # DTB read hits
system.cpu.itb.read_misses                          0                       # DTB read misses
system.cpu.itb.stage2_mmu.stage2_tlb.accesses            0                       # DTB accesses
system.cpu.itb.stage2_mmu.stage2_tlb.align_faults            0                       # Number of TLB faults due to alignment restrictions
system.cpu.itb.stage2_mmu.stage2_tlb.domain_faults            0                       # Number of TLB faults due to domain restrictions
system.cpu.itb.stage2_mmu.stage2_tlb.flush_entries            0                       # Number of entries that have been flushed from TLB
system.cpu.itb.stage2_mmu.stage2_tlb.flush_tlb            0                       # Number of times complete TLB was flushed
system.cpu.itb.stage2_mmu.stage2_tlb.flush_tlb_asid            0                       # Number of times TLB was flushed by ASID
system.cpu.itb.stage2_mmu.stage2_tlb.flush_tlb_mva            0                       # Number of times TLB was flushed by MVA
system.cpu.itb.stage2_mmu.stage2_tlb.flush_tlb_mva_asid            0                       # Number of times TLB was flushed by MVA & ASID
system.cpu.itb.stage2_mmu.stage2_tlb.hits            0                       # DTB hits
system.cpu.itb.stage2_mmu.stage2_tlb.inst_accesses            0                       # ITB inst accesses
system.cpu.itb.stage2_mmu.stage2_tlb.inst_hits            0                       # ITB inst hits
system.cpu.itb.stage2_mmu.stage2_tlb.inst_misses            0                       # ITB inst misses
system.cpu.itb.stage2_mmu.stage2_tlb.misses            0                       # DTB misses
system.cpu.itb.stage2_mmu.stage2_tlb.perms_faults            0                       # Number of TLB faults due to permissions restrictions
system.cpu.itb.stage2_mmu.stage2_tlb.prefetch_faults            0                       # Number of TLB faults due to prefetch
system.cpu.itb.stage2_mmu.stage2_tlb.read_accesses            0                       # DTB read accesses
system.cpu.itb.stage2_mmu.stage2_tlb.read_hits            0                       # DTB read hits
system.cpu.itb.stage2_mmu.stage2_tlb.read_misses            0                       # DTB read misses
system.cpu.itb.stage2_mmu.stage2_tlb.walker.walkRequestOrigin_Requested::Data            0                       # Table walker requests started/completed, data/inst
system.cpu.itb.stage2_mmu.stage2_tlb.walker.walkRequestOrigin_Requested::Inst            0                       # Table walker requests started/completed, data/inst
system.cpu.itb.stage2_mmu.stage2_tlb.walker.walkRequestOrigin_Requested::total            0                       # Table walker requests started/completed, data/inst
system.cpu.itb.stage2_mmu.stage2_tlb.walker.walkRequestOrigin_Completed::Data            0                       # Table walker requests started/completed, data/inst
system.cpu.itb.stage2_mmu.stage2_tlb.walker.walkRequestOrigin_Completed::Inst            0                       # Table walker requests started/completed, data/inst
system.cpu.itb.stage2_mmu.stage2_tlb.walker.walkRequestOrigin_Completed::total            0                       # Table walker requests started/completed, data/inst
system.cpu.itb.stage2_mmu.stage2_tlb.walker.walkRequestOrigin::total            0                       # Table walker requests started/completed, data/inst
system.cpu.itb.stage2_mmu.stage2_tlb.walker.walks            0                       # Table walker walks requested
system.cpu.itb.stage2_mmu.stage2_tlb.write_accesses            0                       # DTB write accesses
system.cpu.itb.stage2_mmu.stage2_tlb.write_hits            0                       # DTB write hits
system.cpu.itb.stage2_mmu.stage2_tlb.write_misses            0                       # DTB write misses
system.cpu.itb.walker.walkRequestOrigin_Requested::Data            0                       # Table walker requests started/completed, data/inst
system.cpu.itb.walker.walkRequestOrigin_Requested::Inst            0                       # Table walker requests started/completed, data/inst
system.cpu.itb.walker.walkRequestOrigin_Requested::total            0                       # Table walker requests started/completed, data/inst
system.cpu.itb.walker.walkRequestOrigin_Completed::Data            0                       # Table walker requests started/completed, data/inst
system.cpu.itb.walker.walkRequestOrigin_Completed::Inst            0                       # Table walker requests started/completed, data/inst
system.cpu.itb.walker.walkRequestOrigin_Completed::total            0                       # Table walker requests started/completed, data/inst
system.cpu.itb.walker.walkRequestOrigin::total            0                       # Table walker requests started/completed, data/inst
system.cpu.itb.walker.walks                         0                       # Table walker walks requested
system.cpu.itb.write_accesses                       0                       # DTB write accesses
system.cpu.itb.write_hits                           0                       # DTB write hits
system.cpu.itb.write_misses                         0                       # DTB write misses
system.cpu.numCycles                         38556315                       # number of cpu cycles simulated
system.cpu.numFetchSuspends                         0                       # Number of times Execute suspended instruction fetching
system.cpu.numWorkItemsCompleted                    0                       # number of work items this cpu completed
system.cpu.numWorkItemsStarted                      0                       # number of work items this cpu started
system.cpu.op_class_0::No_OpClass                   0      0.00%      0.00% # Class of committed instruction
system.cpu.op_class_0::IntAlu                 2830128     28.22%     28.22% # Class of committed instruction
system.cpu.op_class_0::IntMult                  20549      0.20%     28.43% # Class of committed instruction
system.cpu.op_class_0::IntDiv                       0      0.00%     28.43% # Class of committed instruction
system.cpu.op_class_0::FloatAdd                     0      0.00%     28.43% # Class of committed instruction
system.cpu.op_class_0::FloatCmp                     0      0.00%     28.43% # Class of committed instruction
system.cpu.op_class_0::FloatCvt                     0      0.00%     28.43% # Class of committed instruction
system.cpu.op_class_0::FloatMult                    0      0.00%     28.43% # Class of committed instruction
system.cpu.op_class_0::FloatMultAcc                 0      0.00%     28.43% # Class of committed instruction
system.cpu.op_class_0::FloatDiv                     0      0.00%     28.43% # Class of committed instruction
system.cpu.op_class_0::FloatMisc                    0      0.00%     28.43% # Class of committed instruction
system.cpu.op_class_0::FloatSqrt                    0      0.00%     28.43% # Class of committed instruction
system.cpu.op_class_0::SimdAdd                      0      0.00%     28.43% # Class of committed instruction
system.cpu.op_class_0::SimdAddAcc                   0      0.00%     28.43% # Class of committed instruction
system.cpu.op_class_0::SimdAlu                      0      0.00%     28.43% # Class of committed instruction
system.cpu.op_class_0::SimdCmp                      0      0.00%     28.43% # Class of committed instruction
system.cpu.op_class_0::SimdCvt                      0      0.00%     28.43% # Class of committed instruction
system.cpu.op_class_0::SimdMisc                     0      0.00%     28.43% # Class of committed instruction
system.cpu.op_class_0::SimdMult                     0      0.00%     28.43% # Class of committed instruction
system.cpu.op_class_0::SimdMultAcc                  0      0.00%     28.43% # Class of committed instruction
system.cpu.op_class_0::SimdShift                    0      0.00%     28.43% # Class of committed instruction
system.cpu.op_class_0::SimdShiftAcc                 0      0.00%     28.43% # Class of committed instruction
system.cpu.op_class_0::SimdDiv                      0      0.00%     28.43% # Class of committed instruction
system.cpu.op_class_0::SimdSqrt                     0      0.00%     28.43% # Class of committed instruction
system.cpu.op_class_0::SimdFloatAdd                 0      0.00%     28.43% # Class of committed instruction
system.cpu.op_class_0::SimdFloatAlu                 0      0.00%     28.43% # Class of committed instruction
system.cpu.op_class_0::SimdFloatCmp                 0      0.00%     28.43% # Class of committed instruction
system.cpu.op_class_0::SimdFloatCvt                 0      0.00%     28.43% # Class of committed instruction
system.cpu.op_class_0::SimdFloatDiv                 0      0.00%     28.43% # Class of committed instruction
system.cpu.op_class_0::SimdFloatMisc               18      0.00%     28.43% # Class of committed instruction
system.cpu.op_class_0::SimdFloatMult                0      0.00%     28.43% # Class of committed instruction
system.cpu.op_class_0::SimdFloatMultAcc             0      0.00%     28.43% # Class of committed instruction
system.cpu.op_class_0::SimdFloatSqrt                0      0.00%     28.43% # Class of committed instruction
system.cpu.op_class_0::SimdReduceAdd                0      0.00%     28.43% # Class of committed instruction
system.cpu.op_class_0::SimdReduceAlu                0      0.00%     28.43% # Class of committed instruction
system.cpu.op_class_0::SimdReduceCmp                0      0.00%     28.43% # Class of committed instruction
system.cpu.op_class_0::SimdFloatReduceAdd            0      0.00%     28.43% # Class of committed instruction
system.cpu.op_class_0::SimdFloatReduceCmp            0      0.00%     28.43% # Class of committed instruction
system.cpu.op_class_0::SimdAes                      0      0.00%     28.43% # Class of committed instruction
system.cpu.op_class_0::SimdAesMix                   0      0.00%     28.43% # Class of committed instruction
system.cpu.op_class_0::SimdSha1Hash                 0      0.00%     28.43% # Class of committed instruction
system.cpu.op_class_0::SimdSha1Hash2                0      0.00%     28.43% # Class of committed instruction
system.cpu.op_class_0::SimdSha256Hash               0      0.00%     28.43% # Class of committed instruction
system.cpu.op_class_0::SimdSha256Hash2              0      0.00%     28.43% # Class of committed instruction
system.cpu.op_class_0::SimdShaSigma2                0      0.00%     28.43% # Class of committed instruction
system.cpu.op_class_0::SimdShaSigma3                0      0.00%     28.43% # Class of committed instruction
system.cpu.op_class_0::SimdPredAlu                  0      0.00%     28.43% # Class of committed instruction
system.cpu.op_class_0::MemRead                5721911     57.06%     85.48% # Class of committed instruction
system.cpu.op_class_0::MemWrite               1455702     14.52%    100.00% # Class of committed instruction
system.cpu.op_class_0::FloatMemRead                 0      0.00%    100.00% # Class of committed instruction
system.cpu.op_class_0::FloatMemWrite                0      0.00%    100.00% # Class of committed instruction
system.cpu.op_class_0::IprAccess                    0      0.00%    100.00% # Class of committed instruction
system.cpu.op_class_0::InstPrefetch                 0      0.00%    100.00% # Class of committed instruction
system.cpu.op_class_0::total                 10028308                       # Class of committed instruction
system.cpu.tickCycles                        14727983                       # Number of cycles that the object actually ticked
system.cpu.workload.numSyscalls                    84                       # Number of system calls
system.membus.snoop_filter.hit_multi_requests            0                       # Number of requests hitting in the snoop filter with multiple (>1) holders of the requested data.
system.membus.snoop_filter.hit_multi_snoops            0                       # Number of snoops hitting in the snoop filter with multiple (>1) holders of the requested data.
system.membus.snoop_filter.hit_single_requests       182140                       # Number of requests hitting in the snoop filter with a single holder of the requested data.
system.membus.snoop_filter.hit_single_snoops            0                       # Number of snoops hitting in the snoop filter with a single holder of the requested data.
system.membus.snoop_filter.tot_requests        381161                       # Total number of requests made to the snoop filter.
system.membus.snoop_filter.tot_snoops               0                       # Total number of snoops made to the snoop filter.
system.tol2bus.snoop_filter.hit_multi_requests           43                       # Number of requests hitting in the snoop filter with multiple (>1) holders of the requested data.
system.tol2bus.snoop_filter.hit_multi_snoops            0                       # Number of snoops hitting in the snoop filter with multiple (>1) holders of the requested data.
system.tol2bus.snoop_filter.hit_single_requests       197921                       # Number of requests hitting in the snoop filter with a single holder of the requested data.
system.tol2bus.snoop_filter.hit_single_snoops          565                       # Number of snoops hitting in the snoop filter with a single holder of the requested data.
system.tol2bus.snoop_filter.tot_requests       397520                       # Total number of requests made to the snoop filter.
system.tol2bus.snoop_filter.tot_snoops            565                       # Total number of snoops made to the snoop filter.
system.membus.pwrStateResidencyTicks::UNDEFINED  19278157500                       # Cumulative time (in ticks) in various power states
system.membus.trans_dist::ReadResp              89299                       # Transaction distribution
system.membus.trans_dist::WritebackDirty       105189                       # Transaction distribution
system.membus.trans_dist::CleanEvict            76947                       # Transaction distribution
system.membus.trans_dist::ReadExReq            109726                       # Transaction distribution
system.membus.trans_dist::ReadExResp           109726                       # Transaction distribution
system.membus.trans_dist::ReadSharedReq         89299                       # Transaction distribution
system.membus.pkt_count_system.l2.mem_side::system.mem_ctrls.port       580186                       # Packet count per connected master and slave (bytes)
system.membus.pkt_count::total                 580186                       # Packet count per connected master and slave (bytes)
system.membus.pkt_size_system.l2.mem_side::system.mem_ctrls.port      9734848                       # Cumulative packet size per connected master and slave (bytes)
system.membus.pkt_size::total                 9734848                       # Cumulative packet size per connected master and slave (bytes)
system.membus.snoops                                0                       # Total snoops (count)
system.membus.snoopTraffic                          0                       # Total snoop traffic (bytes)
system.membus.snoop_fanout::samples            199025                       # Request fanout histogram
system.membus.snoop_fanout::mean                    0                       # Request fanout histogram
system.membus.snoop_fanout::stdev                   0                       # Request fanout histogram
system.membus.snoop_fanout::underflows              0      0.00%      0.00% # Request fanout histogram
system.membus.snoop_fanout::0                  199025    100.00%    100.00% # Request fanout histogram
system.membus.snoop_fanout::1                       0      0.00%    100.00% # Request fanout histogram
system.membus.snoop_fanout::overflows               0      0.00%    100.00% # Request fanout histogram
system.membus.snoop_fanout::min_value               0                       # Request fanout histogram
system.membus.snoop_fanout::max_value               0                       # Request fanout histogram
system.membus.snoop_fanout::total              199025                       # Request fanout histogram
system.membus.respLayer1.occupancy          657590000                       # Layer occupancy (ticks)
system.membus.respLayer1.utilization              3.4                       # Layer utilization (%)
system.membus.reqLayer0.occupancy           654743000                       # Layer occupancy (ticks)
system.membus.reqLayer0.utilization               3.4                       # Layer utilization (%)
system.tol2bus.pwrStateResidencyTicks::UNDEFINED  19278157500                       # Cumulative time (in ticks) in various power states
system.tol2bus.trans_dist::ReadResp             89869                       # Transaction distribution
system.tol2bus.trans_dist::WritebackDirty       214545                       # Transaction distribution
system.tol2bus.trans_dist::WritebackClean          229                       # Transaction distribution
system.tol2bus.trans_dist::CleanEvict          165838                       # Transaction distribution
system.tol2bus.trans_dist::ReadExReq           109740                       # Transaction distribution
system.tol2bus.trans_dist::ReadExResp          109740                       # Transaction distribution
system.tol2bus.trans_dist::ReadCleanReq           903                       # Transaction distribution
system.tol2bus.trans_dist::ReadSharedReq        88966                       # Transaction distribution
system.tol2bus.pkt_count_system.cpu.icache.mem_side::system.l2.cpu_side         2035                       # Packet count per connected master and slave (bytes)
system.tol2bus.pkt_count_system.cpu.dcache.mem_side::system.l2.cpu_side       595094                       # Packet count per connected master and slave (bytes)
system.tol2bus.pkt_count::total                597129                       # Packet count per connected master and slave (bytes)
system.tol2bus.pkt_size_system.cpu.icache.mem_side::system.l2.cpu_side        36224                       # Cumulative packet size per connected master and slave (bytes)
system.tol2bus.pkt_size_system.cpu.dcache.mem_side::system.l2.cpu_side      9857984                       # Cumulative packet size per connected master and slave (bytes)
system.tol2bus.pkt_size::total                9894208                       # Cumulative packet size per connected master and slave (bytes)
system.tol2bus.snoops                          182701                       # Total snoops (count)
system.tol2bus.snoopTraffic                   3366048                       # Total snoop traffic (bytes)
system.tol2bus.snoop_fanout::samples           382310                       # Request fanout histogram
system.tol2bus.snoop_fanout::mean            0.001616                       # Request fanout histogram
system.tol2bus.snoop_fanout::stdev           0.040173                       # Request fanout histogram
system.tol2bus.snoop_fanout::underflows             0      0.00%      0.00% # Request fanout histogram
system.tol2bus.snoop_fanout::0                 381692     99.84%     99.84% # Request fanout histogram
system.tol2bus.snoop_fanout::1                    618      0.16%    100.00% # Request fanout histogram
system.tol2bus.snoop_fanout::2                      0      0.00%    100.00% # Request fanout histogram
system.tol2bus.snoop_fanout::overflows              0      0.00%    100.00% # Request fanout histogram
system.tol2bus.snoop_fanout::min_value              0                       # Request fanout histogram
system.tol2bus.snoop_fanout::max_value              1                       # Request fanout histogram
system.tol2bus.snoop_fanout::total             382310                       # Request fanout histogram
system.tol2bus.reqLayer0.occupancy          253552500                       # Layer occupancy (ticks)
system.tol2bus.reqLayer0.utilization              1.3                       # Layer utilization (%)
system.tol2bus.respLayer1.occupancy         198707497                       # Layer occupancy (ticks)
system.tol2bus.respLayer1.utilization             1.0                       # Layer utilization (%)
system.tol2bus.respLayer0.occupancy            903000                       # Layer occupancy (ticks)
system.tol2bus.respLayer0.utilization             0.0                       # Layer utilization (%)
system.voltage_domain.voltage                       1                       # Voltage in Volts
system.clk_domain.clock                          1000                       # Clock period in ticks
system.l2.pwrStateResidencyTicks::UNDEFINED  19278157500                       # Cumulative time (in ticks) in various power states
system.l2.demand_hits::.cpu.inst                   89                       # number of demand (read+write) hits
system.l2.demand_hits::.cpu.data                  492                       # number of demand (read+write) hits
system.l2.demand_hits::total                      581                       # number of demand (read+write) hits
system.l2.overall_hits::.cpu.inst                  89                       # number of overall hits
system.l2.overall_hits::.cpu.data                 492                       # number of overall hits
system.l2.overall_hits::total                     581                       # number of overall hits
system.l2.demand_misses::.cpu.inst                814                       # number of demand (read+write) misses
system.l2.demand_misses::.cpu.data             198214                       # number of demand (read+write) misses
system.l2.demand_misses::total                 199028                       # number of demand (read+write) misses
system.l2.overall_misses::.cpu.inst               814                       # number of overall misses
system.l2.overall_misses::.cpu.data            198214                       # number of overall misses
system.l2.overall_misses::total                199028                       # number of overall misses
system.l2.demand_miss_latency::.cpu.inst     61676000                       # number of demand (read+write) miss cycles
system.l2.demand_miss_latency::.cpu.data  15463193500                       # number of demand (read+write) miss cycles
system.l2.demand_miss_latency::total      15524869500                       # number of demand (read+write) miss cycles
system.l2.overall_miss_latency::.cpu.inst     61676000                       # number of overall miss cycles
system.l2.overall_miss_latency::.cpu.data  15463193500                       # number of overall miss cycles
system.l2.overall_miss_latency::total     15524869500                       # number of overall miss cycles
system.l2.demand_accesses::.cpu.inst              903                       # number of demand (read+write) accesses
system.l2.demand_accesses::.cpu.data           198706                       # number of demand (read+write) accesses
system.l2.demand_accesses::total               199609                       # number of demand (read+write) accesses
system.l2.overall_accesses::.cpu.inst             903                       # number of overall (read+write) accesses
system.l2.overall_accesses::.cpu.data          198706                       # number of overall (read+write) accesses
system.l2.overall_accesses::total              199609                       # number of overall (read+write) accesses
system.l2.demand_miss_rate::.cpu.inst        0.901440                       # miss rate for demand accesses
system.l2.demand_miss_rate::.cpu.data        0.997524                       # miss rate for demand accesses
system.l2.demand_miss_rate::total            0.997089                       # miss rate for demand accesses
system.l2.overall_miss_rate::.cpu.inst       0.901440                       # miss rate for overall accesses
system.l2.overall_miss_rate::.cpu.data       0.997524                       # miss rate for overall accesses
system.l2.overall_miss_rate::total           0.997089                       # miss rate for overall accesses
system.l2.demand_avg_miss_latency::.cpu.inst 75769.041769                       # average overall miss latency
system.l2.demand_avg_miss_latency::.cpu.data 78012.620198                       # average overall miss latency
system.l2.demand_avg_miss_latency::total 78003.444239                       # average overall miss latency
system.l2.overall_avg_miss_latency::.cpu.inst 75769.041769                       # average overall miss latency
system.l2.overall_avg_miss_latency::.cpu.data 78012.620198                       # average overall miss latency
system.l2.overall_avg_miss_latency::total 78003.444239                       # average overall miss latency
system.l2.blocked_cycles::no_mshrs                  0                       # number of cycles access was blocked
system.l2.blocked_cycles::no_targets                0                       # number of cycles access was blocked
system.l2.blocked::no_mshrs                         0                       # number of cycles access was blocked
system.l2.blocked::no_targets                       0                       # number of cycles access was blocked
system.l2.avg_blocked_cycles::no_mshrs            nan                       # average number of cycles each access was blocked
system.l2.avg_blocked_cycles::no_targets          nan                       # average number of cycles each access was blocked
system.l2.writebacks::.writebacks              105189                       # number of writebacks
system.l2.writebacks::total                    105189                       # number of writebacks
system.l2.demand_mshr_hits::.cpu.data               3                       # number of demand (read+write) MSHR hits
system.l2.demand_mshr_hits::total                   3                       # number of demand (read+write) MSHR hits
system.l2.overall_mshr_hits::.cpu.data              3                       # number of overall MSHR hits
system.l2.overall_mshr_hits::total                  3                       # number of overall MSHR hits
system.l2.demand_mshr_misses::.cpu.inst           814                       # number of demand (read+write) MSHR misses
system.l2.demand_mshr_misses::.cpu.data        198211                       # number of demand (read+write) MSHR misses
system.l2.demand_mshr_misses::total            199025                       # number of demand (read+write) MSHR misses
system.l2.overall_mshr_misses::.cpu.inst          814                       # number of overall MSHR misses
system.l2.overall_mshr_misses::.cpu.data       198211                       # number of overall MSHR misses
system.l2.overall_mshr_misses::total           199025                       # number of overall MSHR misses
system.l2.demand_mshr_miss_latency::.cpu.inst     53536000                       # number of demand (read+write) MSHR miss cycles
system.l2.demand_mshr_miss_latency::.cpu.data  13480886500                       # number of demand (read+write) MSHR miss cycles
system.l2.demand_mshr_miss_latency::total  13534422500                       # number of demand (read+write) MSHR miss cycles
system.l2.overall_mshr_miss_latency::.cpu.inst     53536000                       # number of overall MSHR miss cycles
system.l2.overall_mshr_miss_latency::.cpu.data  13480886500                       # number of overall MSHR miss cycles
system.l2.overall_mshr_miss_latency::total  13534422500                       # number of overall MSHR miss cycles
system.l2.demand_mshr_miss_rate::.cpu.inst     0.901440                       # mshr miss rate for demand accesses
system.l2.demand_mshr_miss_rate::.cpu.data     0.997509                       # mshr miss rate for demand accesses
system.l2.demand_mshr_miss_rate::total       0.997074                       # mshr miss rate for demand accesses
system.l2.overall_mshr_miss_rate::.cpu.inst     0.901440                       # mshr miss rate for overall accesses
system.l2.overall_mshr_miss_rate::.cpu.data     0.997509                       # mshr miss rate for overall accesses
system.l2.overall_mshr_miss_rate::total      0.997074                       # mshr miss rate for overall accesses
system.l2.demand_avg_mshr_miss_latency::.cpu.inst 65769.041769                       # average overall mshr miss latency
system.l2.demand_avg_mshr_miss_latency::.cpu.data 68012.807059                       # average overall mshr miss latency
system.l2.demand_avg_mshr_miss_latency::total 68003.630197                       # average overall mshr miss latency
system.l2.overall_avg_mshr_miss_latency::.cpu.inst 65769.041769                       # average overall mshr miss latency
system.l2.overall_avg_mshr_miss_latency::.cpu.data 68012.807059                       # average overall mshr miss latency
system.l2.overall_avg_mshr_miss_latency::total 68003.630197                       # average overall mshr miss latency
system.l2.replacements                         182701                       # number of replacements
system.l2.WritebackDirty_hits::.writebacks       109356                       # number of WritebackDirty hits
system.l2.WritebackDirty_hits::total           109356                       # number of WritebackDirty hits
system.l2.WritebackDirty_accesses::.writebacks       109356                       # number of WritebackDirty accesses(hits+misses)
system.l2.WritebackDirty_accesses::total       109356                       # number of WritebackDirty accesses(hits+misses)
system.l2.WritebackClean_hits::.writebacks          220                       # number of WritebackClean hits
system.l2.WritebackClean_hits::total              220                       # number of WritebackClean hits
system.l2.WritebackClean_accesses::.writebacks          220                       # number of WritebackClean accesses(hits+misses)
system.l2.WritebackClean_accesses::total          220                       # number of WritebackClean accesses(hits+misses)
system.l2.ReadExReq_hits::.cpu.data                14                       # number of ReadExReq hits
system.l2.ReadExReq_hits::total                    14                       # number of ReadExReq hits
system.l2.ReadExReq_misses::.cpu.data          109726                       # number of ReadExReq misses
system.l2.ReadExReq_misses::total              109726                       # number of ReadExReq misses
system.l2.ReadExReq_miss_latency::.cpu.data   8683690000                       # number of ReadExReq miss cycles
system.l2.ReadExReq_miss_latency::total    8683690000                       # number of ReadExReq miss cycles
system.l2.ReadExReq_accesses::.cpu.data        109740                       # number of ReadExReq accesses(hits+misses)
system.l2.ReadExReq_accesses::total            109740                       # number of ReadExReq accesses(hits+misses)
system.l2.ReadExReq_miss_rate::.cpu.data     0.999872                       # miss rate for ReadExReq accesses
system.l2.ReadExReq_miss_rate::total         0.999872                       # miss rate for ReadExReq accesses
system.l2.ReadExReq_avg_miss_latency::.cpu.data 79139.766327                       # average ReadExReq miss latency
system.l2.ReadExReq_avg_miss_latency::total 79139.766327                       # average ReadExReq miss latency
system.l2.ReadExReq_mshr_misses::.cpu.data       109726                       # number of ReadExReq MSHR misses
system.l2.ReadExReq_mshr_misses::total         109726                       # number of ReadExReq MSHR misses
system.l2.ReadExReq_mshr_miss_latency::.cpu.data   7586430000                       # number of ReadExReq MSHR miss cycles
system.l2.ReadExReq_mshr_miss_latency::total   7586430000                       # number of ReadExReq MSHR miss cycles
system.l2.ReadExReq_mshr_miss_rate::.cpu.data     0.999872                       # mshr miss rate for ReadExReq accesses
system.l2.ReadExReq_mshr_miss_rate::total     0.999872                       # mshr miss rate for ReadExReq accesses
system.l2.ReadExReq_avg_mshr_miss_latency::.cpu.data 69139.766327                       # average ReadExReq mshr miss latency
system.l2.ReadExReq_avg_mshr_miss_latency::total 69139.766327                       # average ReadExReq mshr miss latency
system.l2.ReadCleanReq_hits::.cpu.inst             89                       # number of ReadCleanReq hits
system.l2.ReadCleanReq_hits::total                 89                       # number of ReadCleanReq hits
system.l2.ReadCleanReq_misses::.cpu.inst          814                       # number of ReadCleanReq misses
system.l2.ReadCleanReq_misses::total              814                       # number of ReadCleanReq misses
system.l2.ReadCleanReq_miss_latency::.cpu.inst     61676000                       # number of ReadCleanReq miss cycles
system.l2.ReadCleanReq_miss_latency::total     61676000                       # number of ReadCleanReq miss cycles
system.l2.ReadCleanReq_accesses::.cpu.inst          903                       # number of ReadCleanReq accesses(hits+misses)
system.l2.ReadCleanReq_accesses::total            903                       # number of ReadCleanReq accesses(hits+misses)
system.l2.ReadCleanReq_miss_rate::.cpu.inst     0.901440                       # miss rate for ReadCleanReq accesses
system.l2.ReadCleanReq_miss_rate::total      0.901440                       # miss rate for ReadCleanReq accesses
system.l2.ReadCleanReq_avg_miss_latency::.cpu.inst 75769.041769                       # average ReadCleanReq miss latency
system.l2.ReadCleanReq_avg_miss_latency::total 75769.041769                       # average ReadCleanReq miss latency
system.l2.ReadCleanReq_mshr_misses::.cpu.inst          814                       # number of ReadCleanReq MSHR misses
system.l2.ReadCleanReq_mshr_misses::total          814                       # number of ReadCleanReq MSHR misses
system.l2.ReadCleanReq_mshr_miss_latency::.cpu.inst     53536000                       # number of ReadCleanReq MSHR miss cycles
system.l2.ReadCleanReq_mshr_miss_latency::total     53536000                       # number of ReadCleanReq MSHR miss cycles
system.l2.ReadCleanReq_mshr_miss_rate::.cpu.inst     0.901440                       # mshr miss rate for ReadCleanReq accesses
system.l2.ReadCleanReq_mshr_miss_rate::total     0.901440                       # mshr miss rate for ReadCleanReq accesses
system.l2.ReadCleanReq_avg_mshr_miss_latency::.cpu.inst 65769.041769                       # average ReadCleanReq mshr miss latency
system.l2.ReadCleanReq_avg_mshr_miss_latency::total 65769.041769                       # average ReadCleanReq mshr miss latency
system.l2.ReadSharedReq_hits::.cpu.data           478                       # number of ReadSharedReq hits
system.l2.ReadSharedReq_hits::total               478                       # number of ReadSharedReq hits
system.l2.ReadSharedReq_misses::.cpu.data        88488                       # number of ReadSharedReq misses
system.l2.ReadSharedReq_misses::total           88488                       # number of ReadSharedReq misses
system.l2.ReadSharedReq_miss_latency::.cpu.data   6779503500                       # number of ReadSharedReq miss cycles
system.l2.ReadSharedReq_miss_latency::total   6779503500                       # number of ReadSharedReq miss cycles
system.l2.ReadSharedReq_accesses::.cpu.data        88966                       # number of ReadSharedReq accesses(hits+misses)
system.l2.ReadSharedReq_accesses::total         88966                       # number of ReadSharedReq accesses(hits+misses)
system.l2.ReadSharedReq_miss_rate::.cpu.data     0.994627                       # miss rate for ReadSharedReq accesses
system.l2.ReadSharedReq_miss_rate::total     0.994627                       # miss rate for ReadSharedReq accesses
system.l2.ReadSharedReq_avg_miss_latency::.cpu.data 76614.947790                       # average ReadSharedReq miss latency
system.l2.ReadSharedReq_avg_miss_latency::total 76614.947790                       # average ReadSharedReq miss latency
system.l2.ReadSharedReq_mshr_hits::.cpu.data            3                       # number of ReadSharedReq MSHR hits
system.l2.ReadSharedReq_mshr_hits::total            3                       # number of ReadSharedReq MSHR hits
system.l2.ReadSharedReq_mshr_misses::.cpu.data        88485                       # number of ReadSharedReq MSHR misses
system.l2.ReadSharedReq_mshr_misses::total        88485                       # number of ReadSharedReq MSHR misses
system.l2.ReadSharedReq_mshr_miss_latency::.cpu.data   5894456500                       # number of ReadSharedReq MSHR miss cycles
system.l2.ReadSharedReq_mshr_miss_latency::total   5894456500                       # number of ReadSharedReq MSHR miss cycles
system.l2.ReadSharedReq_mshr_miss_rate::.cpu.data     0.994593                       # mshr miss rate for ReadSharedReq accesses
system.l2.ReadSharedReq_mshr_miss_rate::total     0.994593                       # mshr miss rate for ReadSharedReq accesses
system.l2.ReadSharedReq_avg_mshr_miss_latency::.cpu.data 66615.318981                       # average ReadSharedReq mshr miss latency
system.l2.ReadSharedReq_avg_mshr_miss_latency::total 66615.318981                       # average ReadSharedReq mshr miss latency
system.l2.tags.pwrStateResidencyTicks::UNDEFINED  19278157500                       # Cumulative time (in ticks) in various power states
system.l2.tags.tagsinuse                 14718.198278                       # Cycle average of tags in use
system.l2.tags.total_refs                      397474                       # Total number of references to valid blocks.
system.l2.tags.sampled_refs                    199085                       # Sample count of references to valid blocks.
system.l2.tags.avg_refs                      1.996504                       # Average number of references to valid blocks.
system.l2.tags.warmup_cycle                     77000                       # Cycle when the warmup percentage was hit.
system.l2.tags.occ_blocks::.writebacks      20.297242                       # Average occupied blocks per requestor
system.l2.tags.occ_blocks::.cpu.inst       130.428928                       # Average occupied blocks per requestor
system.l2.tags.occ_blocks::.cpu.data     14567.472107                       # Average occupied blocks per requestor
system.l2.tags.occ_percent::.writebacks      0.001239                       # Average percentage of cache occupancy
system.l2.tags.occ_percent::.cpu.inst        0.007961                       # Average percentage of cache occupancy
system.l2.tags.occ_percent::.cpu.data        0.889128                       # Average percentage of cache occupancy
system.l2.tags.occ_percent::total            0.898328                       # Average percentage of cache occupancy
system.l2.tags.occ_task_id_blocks::1024         16384                       # Occupied blocks per task id
system.l2.tags.age_task_id_blocks_1024::0            4                       # Occupied blocks per task id
system.l2.tags.age_task_id_blocks_1024::1           38                       # Occupied blocks per task id
system.l2.tags.age_task_id_blocks_1024::2          671                       # Occupied blocks per task id
system.l2.tags.age_task_id_blocks_1024::3        15671                       # Occupied blocks per task id
system.l2.tags.occ_task_id_percent::1024            1                       # Percentage of cache occupancy per task id
system.l2.tags.tag_accesses                   1788993                       # Number of tag accesses
system.l2.tags.data_accesses                  1788993                       # Number of data accesses
system.cpu_voltage_domain.voltage                   1                       # Voltage in Volts
system.mem_ctrls.pwrStateResidencyTicks::UNDEFINED  19278157500                       # Cumulative time (in ticks) in various power states
system.mem_ctrls.bytes_read::.cpu.inst          26048                       # Number of bytes read from this memory
system.mem_ctrls.bytes_read::.cpu.data        6342752                       # Number of bytes read from this memory
system.mem_ctrls.bytes_read::total            6368800                       # Number of bytes read from this memory
system.mem_ctrls.bytes_inst_read::.cpu.inst        26048                       # Number of instructions bytes read from this memory
system.mem_ctrls.bytes_inst_read::total         26048                       # Number of instructions bytes read from this memory
system.mem_ctrls.bytes_written::.writebacks      3366048                       # Number of bytes written to this memory
system.mem_ctrls.bytes_written::total         3366048                       # Number of bytes written to this memory
system.mem_ctrls.num_reads::.cpu.inst             814                       # Number of read requests responded to by this memory
system.mem_ctrls.num_reads::.cpu.data          198211                       # Number of read requests responded to by this memory
system.mem_ctrls.num_reads::total              199025                       # Number of read requests responded to by this memory
system.mem_ctrls.num_writes::.writebacks       105189                       # Number of write requests responded to by this memory
system.mem_ctrls.num_writes::total             105189                       # Number of write requests responded to by this memory
system.mem_ctrls.bw_read::.cpu.inst           1351166                       # Total read bandwidth from this memory (bytes/s)
system.mem_ctrls.bw_read::.cpu.data         329012355                       # Total read bandwidth from this memory (bytes/s)
system.mem_ctrls.bw_read::total             330363522                       # Total read bandwidth from this memory (bytes/s)
system.mem_ctrls.bw_inst_read::.cpu.inst      1351166                       # Instruction read bandwidth from this memory (bytes/s)
system.mem_ctrls.bw_inst_read::total          1351166                       # Instruction read bandwidth from this memory (bytes/s)
system.mem_ctrls.bw_write::.writebacks      174604238                       # Write bandwidth from this memory (bytes/s)
system.mem_ctrls.bw_write::total            174604238                       # Write bandwidth from this memory (bytes/s)
system.mem_ctrls.bw_total::.writebacks      174604238                       # Total bandwidth to/from this memory (bytes/s)
system.mem_ctrls.bw_total::.cpu.inst          1351166                       # Total bandwidth to/from this memory (bytes/s)
system.mem_ctrls.bw_total::.cpu.data        329012355                       # Total bandwidth to/from this memory (bytes/s)
system.mem_ctrls.bw_total::total            504967759                       # Total bandwidth to/from this memory (bytes/s)
system.mem_ctrls.avgPriority_.writebacks::samples     71330.00                       # Average QoS priority value for accepted requests
system.mem_ctrls.avgPriority_.cpu.inst::samples       814.00                       # Average QoS priority value for accepted requests
system.mem_ctrls.avgPriority_.cpu.data::samples    198211.00                       # Average QoS priority value for accepted requests
system.mem_ctrls.priorityMinLatency      0.000000018750                       # per QoS priority minimum request to response latency (s)
system.mem_ctrls.priorityMaxLatency      0.000715156500                       # per QoS priority maximum request to response latency (s)
system.mem_ctrls.numReadWriteTurnArounds         4446                       # Number of turnarounds from READ to WRITE
system.mem_ctrls.numWriteReadTurnArounds         4446                       # Number of turnarounds from WRITE to READ
system.mem_ctrls.numStayReadState              501503                       # Number of times bus staying in READ state
system.mem_ctrls.numStayWriteState              66925                       # Number of times bus staying in WRITE state
system.mem_ctrls.readReqs                      199025                       # Number of read requests accepted
system.mem_ctrls.writeReqs                     105189                       # Number of write requests accepted
system.mem_ctrls.readBursts                    199025                       # Number of DRAM read bursts, including those serviced by the write queue
system.mem_ctrls.writeBursts                   105189                       # Number of DRAM write bursts, including those merged in the write queue
system.mem_ctrls.servicedByWrQ                      0                       # Number of DRAM read bursts serviced by the write queue
system.mem_ctrls.mergedWrBursts                 33859                       # Number of DRAM write bursts merged with an existing one
system.mem_ctrls.neitherReadNorWriteReqs            0                       # Number of requests that are neither read nor write
system.mem_ctrls.perBankRdBursts::0             12756                       # Per bank write bursts
system.mem_ctrls.perBankRdBursts::1             12580                       # Per bank write bursts
system.mem_ctrls.perBankRdBursts::2             12532                       # Per bank write bursts
system.mem_ctrls.perBankRdBursts::3             12391                       # Per bank write bursts
system.mem_ctrls.perBankRdBursts::4             12512                       # Per bank write bursts
system.mem_ctrls.perBankRdBursts::5             12381                       # Per bank write bursts
system.mem_ctrls.perBankRdBursts::6             12409                       # Per bank write bursts
system.mem_ctrls.perBankRdBursts::7             12729                       # Per bank write bursts
system.mem_ctrls.perBankRdBursts::8             12395                       # Per bank write bursts
system.mem_ctrls.perBankRdBursts::9             12268                       # Per bank write bursts
system.mem_ctrls.perBankRdBursts::10            12300                       # Per bank write bursts
system.mem_ctrls.perBankRdBursts::11            12287                       # Per bank write bursts
system.mem_ctrls.perBankRdBursts::12            12425                       # Per bank write bursts
system.mem_ctrls.perBankRdBursts::13            12365                       # Per bank write bursts
system.mem_ctrls.perBankRdBursts::14            12306                       # Per bank write bursts
system.mem_ctrls.perBankRdBursts::15            12389                       # Per bank write bursts
system.mem_ctrls.perBankWrBursts::0              4519                       # Per bank write bursts
system.mem_ctrls.perBankWrBursts::1              4524                       # Per bank write bursts
system.mem_ctrls.perBankWrBursts::2              4523                       # Per bank write bursts
system.mem_ctrls.perBankWrBursts::3              4486                       # Per bank write bursts
system.mem_ctrls.perBankWrBursts::4              4504                       # Per bank write bursts
system.mem_ctrls.perBankWrBursts::5              4497                       # Per bank write bursts
system.mem_ctrls.perBankWrBursts::6              4456                       # Per bank write bursts
system.mem_ctrls.perBankWrBursts::7              4512                       # Per bank write bursts
system.mem_ctrls.perBankWrBursts::8              4428                       # Per bank write bursts
system.mem_ctrls.perBankWrBursts::9              4402                       # Per bank write bursts
system.mem_ctrls.perBankWrBursts::10             4397                       # Per bank write bursts
system.mem_ctrls.perBankWrBursts::11             4412                       # Per bank write bursts
system.mem_ctrls.perBankWrBursts::12             4408                       # Per bank write bursts
system.mem_ctrls.perBankWrBursts::13             4412                       # Per bank write bursts
system.mem_ctrls.perBankWrBursts::14             4383                       # Per bank write bursts
system.mem_ctrls.perBankWrBursts::15             4439                       # Per bank write bursts
system.mem_ctrls.avgRdQLen                       1.24                       # Average read queue length when enqueuing
system.mem_ctrls.avgWrQLen                      25.22                       # Average write queue length when enqueuing
system.mem_ctrls.totQLat                   1583490250                       # Total ticks spent queuing
system.mem_ctrls.totBusLat                  995125000                       # Total ticks spent in databus transfers
system.mem_ctrls.totMemAccLat              5315209000                       # Total ticks spent from burst creation until serviced by the DRAM
system.mem_ctrls.avgQLat                      7956.24                       # Average queueing delay per DRAM burst
system.mem_ctrls.avgBusLat                    5000.00                       # Average bus latency per DRAM burst
system.mem_ctrls.avgMemAccLat                26706.24                       # Average memory access latency per DRAM burst
system.mem_ctrls.numRdRetry                         0                       # Number of times read queue was full causing retry
system.mem_ctrls.numWrRetry                         0                       # Number of times write queue was full causing retry
system.mem_ctrls.readRowHits                   180795                       # Number of row buffer hits during reads
system.mem_ctrls.writeRowHits                   62416                       # Number of row buffer hits during writes
system.mem_ctrls.readRowHitRate                 90.84                       # Row buffer hit rate for reads
system.mem_ctrls.writeRowHitRate                87.50                       # Row buffer hit rate for writes
system.mem_ctrls.readPktSize::0                     0                       # Read request sizes (log2)
system.mem_ctrls.readPktSize::1                     0                       # Read request sizes (log2)
system.mem_ctrls.readPktSize::2                     0                       # Read request sizes (log2)
system.mem_ctrls.readPktSize::3                     0                       # Read request sizes (log2)
system.mem_ctrls.readPktSize::4                     0                       # Read request sizes (log2)
system.mem_ctrls.readPktSize::5                199025                       # Read request sizes (log2)
system.mem_ctrls.readPktSize::6                     0                       # Read request sizes (log2)
system.mem_ctrls.writePktSize::0                    0                       # Write request sizes (log2)
system.mem_ctrls.writePktSize::1                    0                       # Write request sizes (log2)
system.mem_ctrls.writePktSize::2                    0                       # Write request sizes (log2)
system.mem_ctrls.writePktSize::3                    0                       # Write request sizes (log2)
system.mem_ctrls.writePktSize::4                    0                       # Write request sizes (log2)
system.mem_ctrls.writePktSize::5               105189                       # Write request sizes (log2)
system.mem_ctrls.writePktSize::6                    0                       # Write request sizes (log2)
system.mem_ctrls.rdQLenPdf::0                  145390                       # What read queue length does an incoming req see
system.mem_ctrls.rdQLenPdf::1                   53532                       # What read queue length does an incoming req see
system.mem_ctrls.rdQLenPdf::2                      96                       # What read queue length does an incoming req see
system.mem_ctrls.rdQLenPdf::3                       6                       # What read queue length does an incoming req see
system.mem_ctrls.rdQLenPdf::4                       1                       # What read queue length does an incoming req see
system.mem_ctrls.rdQLenPdf::5                       0                       # What read queue length does an incoming req see
system.mem_ctrls.rdQLenPdf::6                       0                       # What read queue length does an incoming req see
system.mem_ctrls.rdQLenPdf::7                       0                       # What read queue length does an incoming req see
system.mem_ctrls.rdQLenPdf::8                       0                       # What read queue length does an incoming req see
system.mem_ctrls.rdQLenPdf::9                       0                       # What read queue length does an incoming req see
system.mem_ctrls.rdQLenPdf::10                      0                       # What read queue length does an incoming req see
system.mem_ctrls.rdQLenPdf::11                      0                       # What read queue length does an incoming req see
system.mem_ctrls.rdQLenPdf::12                      0                       # What read queue length does an incoming req see
system.mem_ctrls.rdQLenPdf::13                      0                       # What read queue length does an incoming req see
system.mem_ctrls.rdQLenPdf::14                      0                       # What read queue length does an incoming req see
system.mem_ctrls.rdQLenPdf::15                      0                       # What read queue length does an incoming req see
system.mem_ctrls.rdQLenPdf::16                      0                       # What read queue length does an incoming req see
system.mem_ctrls.rdQLenPdf::17                      0                       # What read queue length does an incoming req see
system.mem_ctrls.rdQLenPdf::18                      0                       # What read queue length does an incoming req see
system.mem_ctrls.rdQLenPdf::19                      0                       # What read queue length does an incoming req see
system.mem_ctrls.rdQLenPdf::20                      0                       # What read queue length does an incoming req see
system.mem_ctrls.rdQLenPdf::21                      0                       # What read queue length does an incoming req see
system.mem_ctrls.rdQLenPdf::22                      0                       # What read queue length does an incoming req see
system.mem_ctrls.rdQLenPdf::23                      0                       # What read queue length does an incoming req see
system.mem_ctrls.rdQLenPdf::24                      0                       # What read queue length does an incoming req see
system.mem_ctrls.rdQLenPdf::25                      0                       # What read queue length does an incoming req see
system.mem_ctrls.rdQLenPdf::26                      0                       # What read queue length does an incoming req see
system.mem_ctrls.rdQLenPdf::27                      0                       # What read queue length does an incoming req see
system.mem_ctrls.rdQLenPdf::28                      0                       # What read queue length does an incoming req see
system.mem_ctrls.rdQLenPdf::29                      0                       # What read queue length does an incoming req see
system.mem_ctrls.rdQLenPdf::30                      0                       # What read queue length does an incoming req see
system.mem_ctrls.rdQLenPdf::31                      0                       # What read queue length does an incoming req see
system.mem_ctrls.wrQLenPdf::0                       1                       # What write queue length does an incoming req see
system.mem_ctrls.wrQLenPdf::1                       1                       # What write queue length does an incoming req see
system.mem_ctrls.wrQLenPdf::2                       1                       # What write queue length does an incoming req see
system.mem_ctrls.wrQLenPdf::3                       1                       # What write queue length does an incoming req see
system.mem_ctrls.wrQLenPdf::4                       1                       # What write queue length does an incoming req see
system.mem_ctrls.wrQLenPdf::5                       1                       # What write queue length does an incoming req see
system.mem_ctrls.wrQLenPdf::6                       1                       # What write queue length does an incoming req see
system.mem_ctrls.wrQLenPdf::7                       1                       # What write queue length does an incoming req see
system.mem_ctrls.wrQLenPdf::8                       1                       # What write queue length does an incoming req see
system.mem_ctrls.wrQLenPdf::9                       1                       # What write queue length does an incoming req see
system.mem_ctrls.wrQLenPdf::10                      1                       # What write queue length does an incoming req see
system.mem_ctrls.wrQLenPdf::11                      1                       # What write queue length does an incoming req see
system.mem_ctrls.wrQLenPdf::12                      1                       # What write queue length does an incoming req see
system.mem_ctrls.wrQLenPdf::13                      1                       # What write queue length does an incoming req see
system.mem_ctrls.wrQLenPdf::14                      1                       # What write queue length does an incoming req see
system.mem_ctrls.wrQLenPdf::15                     82                       # What write queue length does an incoming req see
system.mem_ctrls.wrQLenPdf::16                     82                       # What write queue length does an incoming req see
system.mem_ctrls.wrQLenPdf::17                   4131                       # What write queue length does an incoming req see
system.mem_ctrls.wrQLenPdf::18                   4487                       # What write queue length does an incoming req see
system.mem_ctrls.wrQLenPdf::19                   4451                       # What write queue length does an incoming req see
system.mem_ctrls.wrQLenPdf::20                   4563                       # What write queue length does an incoming req see
system.mem_ctrls.wrQLenPdf::21                   4450                       # What write queue length does an incoming req see
system.mem_ctrls.wrQLenPdf::22                   4452                       # What write queue length does an incoming req see
system.mem_ctrls.wrQLenPdf::23                   4457                       # What write queue length does an incoming req see
system.mem_ctrls.wrQLenPdf::24                   4511                       # What write queue length does an incoming req see
system.mem_ctrls.wrQLenPdf::25                   4495                       # What write queue length does an incoming req see
system.mem_ctrls.wrQLenPdf::26                   4449                       # What write queue length does an incoming req see
system.mem_ctrls.wrQLenPdf::27                   4450                       # What write queue length does an incoming req see
system.mem_ctrls.wrQLenPdf::28                   4460                       # What write queue length does an incoming req see
system.mem_ctrls.wrQLenPdf::29                   4456                       # What write queue length does an incoming req see
system.mem_ctrls.wrQLenPdf::30                   4447                       # What write queue length does an incoming req see
system.mem_ctrls.wrQLenPdf::31                   4446                       # What write queue length does an incoming req see
system.mem_ctrls.wrQLenPdf::32                   4446                       # What write queue length does an incoming req see
system.mem_ctrls.wrQLenPdf::33                      0                       # What write queue length does an incoming req see
system.mem_ctrls.wrQLenPdf::34                      0                       # What write queue length does an incoming req see
system.mem_ctrls.wrQLenPdf::35                      0                       # What write queue length does an incoming req see
system.mem_ctrls.wrQLenPdf::36                      0                       # What write queue length does an incoming req see
system.mem_ctrls.wrQLenPdf::37                      0                       # What write queue length does an incoming req see
system.mem_ctrls.wrQLenPdf::38                      0                       # What write queue length does an incoming req see
system.mem_ctrls.wrQLenPdf::39                      0                       # What write queue length does an incoming req see
system.mem_ctrls.wrQLenPdf::40                      0                       # What write queue length does an incoming req see
system.mem_ctrls.wrQLenPdf::41                      0                       # What write queue length does an incoming req see
system.mem_ctrls.wrQLenPdf::42                      0                       # What write queue length does an incoming req see
system.mem_ctrls.wrQLenPdf::43                      0                       # What write queue length does an incoming req see
system.mem_ctrls.wrQLenPdf::44                      0                       # What write queue length does an incoming req see
system.mem_ctrls.wrQLenPdf::45                      0                       # What write queue length does an incoming req see
system.mem_ctrls.wrQLenPdf::46                      0                       # What write queue length does an incoming req see
system.mem_ctrls.wrQLenPdf::47                      0                       # What write queue length does an incoming req see
system.mem_ctrls.wrQLenPdf::48                      0                       # What write queue length does an incoming req see
system.mem_ctrls.wrQLenPdf::49                      0                       # What write queue length does an incoming req see
system.mem_ctrls.wrQLenPdf::50                      0                       # What write queue length does an incoming req see
system.mem_ctrls.wrQLenPdf::51                      0                       # What write queue length does an incoming req see
system.mem_ctrls.wrQLenPdf::52                      0                       # What write queue length does an incoming req see
system.mem_ctrls.wrQLenPdf::53                      0                       # What write queue length does an incoming req see
system.mem_ctrls.wrQLenPdf::54                      0                       # What write queue length does an incoming req see
system.mem_ctrls.wrQLenPdf::55                      0                       # What write queue length does an incoming req see
system.mem_ctrls.wrQLenPdf::56                      0                       # What write queue length does an incoming req see
system.mem_ctrls.wrQLenPdf::57                      0                       # What write queue length does an incoming req see
system.mem_ctrls.wrQLenPdf::58                      0                       # What write queue length does an incoming req see
system.mem_ctrls.wrQLenPdf::59                      0                       # What write queue length does an incoming req see
system.mem_ctrls.wrQLenPdf::60                      0                       # What write queue length does an incoming req see
system.mem_ctrls.wrQLenPdf::61                      0                       # What write queue length does an incoming req see
system.mem_ctrls.wrQLenPdf::62                      0                       # What write queue length does an incoming req see
system.mem_ctrls.wrQLenPdf::63                      0                       # What write queue length does an incoming req see
system.mem_ctrls.bytesPerActivate::samples        27115                       # Bytes accessed per row activation
system.mem_ctrls.bytesPerActivate::mean    638.050378                       # Bytes accessed per row activation
system.mem_ctrls.bytesPerActivate::gmean   513.257575                       # Bytes accessed per row activation
system.mem_ctrls.bytesPerActivate::stdev   333.427249                       # Bytes accessed per row activation
system.mem_ctrls.bytesPerActivate::0-127         1463      5.40%      5.40% # Bytes accessed per row activation
system.mem_ctrls.bytesPerActivate::128-255         3030     11.17%     16.57% # Bytes accessed per row activation
system.mem_ctrls.bytesPerActivate::256-383         1333      4.92%     21.49% # Bytes accessed per row activation
system.mem_ctrls.bytesPerActivate::384-511          928      3.42%     24.91% # Bytes accessed per row activation
system.mem_ctrls.bytesPerActivate::512-639         8780     32.38%     57.29% # Bytes accessed per row activation
system.mem_ctrls.bytesPerActivate::640-767          475      1.75%     59.04% # Bytes accessed per row activation
system.mem_ctrls.bytesPerActivate::768-895          566      2.09%     61.13% # Bytes accessed per row activation
system.mem_ctrls.bytesPerActivate::896-1023         1210      4.46%     65.59% # Bytes accessed per row activation
system.mem_ctrls.bytesPerActivate::1024-1151         9330     34.41%    100.00% # Bytes accessed per row activation
system.mem_ctrls.bytesPerActivate::total        27115                       # Bytes accessed per row activation
system.mem_ctrls.rdPerTurnAround::samples         4446                       # Reads before turning the bus around for writes
system.mem_ctrls.rdPerTurnAround::mean      44.756185                       # Reads before turning the bus around for writes
system.mem_ctrls.rdPerTurnAround::gmean     34.249890                       # Reads before turning the bus around for writes
system.mem_ctrls.rdPerTurnAround::stdev     48.483489                       # Reads before turning the bus around for writes
system.mem_ctrls.rdPerTurnAround::0-63           2272     51.10%     51.10% # Reads before turning the bus around for writes
system.mem_ctrls.rdPerTurnAround::64-127         2135     48.02%     99.12% # Reads before turning the bus around for writes
system.mem_ctrls.rdPerTurnAround::128-191            3      0.07%     99.19% # Reads before turning the bus around for writes
system.mem_ctrls.rdPerTurnAround::192-255            1      0.02%     99.21% # Reads before turning the bus around for writes
system.mem_ctrls.rdPerTurnAround::256-319            4      0.09%     99.30% # Reads before turning the bus around for writes
system.mem_ctrls.rdPerTurnAround::320-383            3      0.07%     99.37% # Reads before turning the bus around for writes
system.mem_ctrls.rdPerTurnAround::384-447            1      0.02%     99.39% # Reads before turning the bus around for writes
system.mem_ctrls.rdPerTurnAround::448-511            1      0.02%     99.42% # Reads before turning the bus around for writes
system.mem_ctrls.rdPerTurnAround::512-575           24      0.54%     99.96% # Reads before turning the bus around for writes
system.mem_ctrls.rdPerTurnAround::576-639            1      0.02%     99.98% # Reads before turning the bus around for writes
[...]
system.cpu.icache.tags.occ_percent::total     0.285573                       # Average percentage of cache occupancy
system.cpu.icache.tags.occ_task_id_blocks::1024          674                       # Occupied blocks per task id
system.cpu.icache.tags.age_task_id_blocks_1024::3          185                       # Occupied blocks per task id
system.cpu.icache.tags.age_task_id_blocks_1024::4          489                       # Occupied blocks per task id
system.cpu.icache.tags.occ_task_id_percent::1024     0.329102                       # Percentage of cache occupancy per task id
system.cpu.icache.tags.tag_accesses           1528270                       # Number of tag accesses
system.cpu.icache.tags.data_accesses          1528270                       # Number of data accesses
system.cpu.dtb.walker.pwrStateResidencyTicks::UNDEFINED  19278157500                       # Cumulative time (in ticks) in various power states
system.cpu.dtb.stage2_mmu.stage2_tlb.walker.pwrStateResidencyTicks::UNDEFINED  19278157500                       # Cumulative time (in ticks) in various power states
system.cpu.dcache.pwrStateResidencyTicks::UNDEFINED  19278157500                       # Cumulative time (in ticks) in various power states
system.cpu.dcache.demand_hits::.cpu.data      6869240                       # number of demand (read+write) hits
system.cpu.dcache.demand_hits::total          6869240                       # number of demand (read+write) hits
system.cpu.dcache.overall_hits::.cpu.data      6869330                       # number of overall hits
system.cpu.dcache.overall_hits::total         6869330                       # number of overall hits
system.cpu.dcache.demand_misses::.cpu.data       274579                       # number of demand (read+write) misses
system.cpu.dcache.demand_misses::total         274579                       # number of demand (read+write) misses
system.cpu.dcache.overall_misses::.cpu.data       276101                       # number of overall misses
system.cpu.dcache.overall_misses::total        276101                       # number of overall misses
system.cpu.dcache.demand_miss_latency::.cpu.data  18947798000                       # number of demand (read+write) miss cycles
system.cpu.dcache.demand_miss_latency::total  18947798000                       # number of demand (read+write) miss cycles
system.cpu.dcache.overall_miss_latency::.cpu.data  18947798000                       # number of overall miss cycles
system.cpu.dcache.overall_miss_latency::total  18947798000                       # number of overall miss cycles
system.cpu.dcache.demand_accesses::.cpu.data      7143819                       # number of demand (read+write) accesses
system.cpu.dcache.demand_accesses::total      7143819                       # number of demand (read+write) accesses
system.cpu.dcache.overall_accesses::.cpu.data      7145431                       # number of overall (read+write) accesses
system.cpu.dcache.overall_accesses::total      7145431                       # number of overall (read+write) accesses
system.cpu.dcache.demand_miss_rate::.cpu.data     0.038436                       # miss rate for demand accesses
system.cpu.dcache.demand_miss_rate::total     0.038436                       # miss rate for demand accesses
system.cpu.dcache.overall_miss_rate::.cpu.data     0.038640                       # miss rate for overall accesses
system.cpu.dcache.overall_miss_rate::total     0.038640                       # miss rate for overall accesses
system.cpu.dcache.demand_avg_miss_latency::.cpu.data 69006.726662                       # average overall miss latency
system.cpu.dcache.demand_avg_miss_latency::total 69006.726662                       # average overall miss latency
system.cpu.dcache.overall_avg_miss_latency::.cpu.data 68626.328771                       # average overall miss latency
system.cpu.dcache.overall_avg_miss_latency::total 68626.328771                       # average overall miss latency
system.cpu.dcache.blocked_cycles::no_mshrs         1055                       # number of cycles access was blocked
system.cpu.dcache.blocked_cycles::no_targets            0                       # number of cycles access was blocked
system.cpu.dcache.blocked::no_mshrs                14                       # number of cycles access was blocked
system.cpu.dcache.blocked::no_targets               0                       # number of cycles access was blocked
system.cpu.dcache.avg_blocked_cycles::no_mshrs    75.357143                       # average number of cycles each access was blocked
system.cpu.dcache.avg_blocked_cycles::no_targets          nan                       # average number of cycles each access was blocked
system.cpu.dcache.writebacks::.writebacks       109356                       # number of writebacks
system.cpu.dcache.writebacks::total            109356                       # number of writebacks
system.cpu.dcache.demand_mshr_hits::.cpu.data        77396                       # number of demand (read+write) MSHR hits
system.cpu.dcache.demand_mshr_hits::total        77396                       # number of demand (read+write) MSHR hits
system.cpu.dcache.overall_mshr_hits::.cpu.data        77396                       # number of overall MSHR hits
system.cpu.dcache.overall_mshr_hits::total        77396                       # number of overall MSHR hits
system.cpu.dcache.demand_mshr_misses::.cpu.data       197183                       # number of demand (read+write) MSHR misses
system.cpu.dcache.demand_mshr_misses::total       197183                       # number of demand (read+write) MSHR misses
system.cpu.dcache.overall_mshr_misses::.cpu.data       198705                       # number of overall MSHR misses
system.cpu.dcache.overall_mshr_misses::total       198705                       # number of overall MSHR misses
system.cpu.dcache.demand_mshr_miss_latency::.cpu.data  15649944000                       # number of demand (read+write) MSHR miss cycles
system.cpu.dcache.demand_mshr_miss_latency::total  15649944000                       # number of demand (read+write) MSHR miss cycles
system.cpu.dcache.overall_mshr_miss_latency::.cpu.data  15766377999                       # number of overall MSHR miss cycles
system.cpu.dcache.overall_mshr_miss_latency::total  15766377999                       # number of overall MSHR miss cycles
system.cpu.dcache.demand_mshr_miss_rate::.cpu.data     0.027602                       # mshr miss rate for demand accesses
system.cpu.dcache.demand_mshr_miss_rate::total     0.027602                       # mshr miss rate for demand accesses
system.cpu.dcache.overall_mshr_miss_rate::.cpu.data     0.027809                       # mshr miss rate for overall accesses
system.cpu.dcache.overall_mshr_miss_rate::total     0.027809                       # mshr miss rate for overall accesses
system.cpu.dcache.demand_avg_mshr_miss_latency::.cpu.data 79367.612827                       # average overall mshr miss latency
system.cpu.dcache.demand_avg_mshr_miss_latency::total 79367.612827                       # average overall mshr miss latency
system.cpu.dcache.overall_avg_mshr_miss_latency::.cpu.data 79345.653099                       # average overall mshr miss latency
system.cpu.dcache.overall_avg_mshr_miss_latency::total 79345.653099                       # average overall mshr miss latency
system.cpu.dcache.replacements                 197682                       # number of replacements
system.cpu.dcache.ReadReq_hits::.cpu.data      5600062                       # number of ReadReq hits
system.cpu.dcache.ReadReq_hits::total         5600062                       # number of ReadReq hits
system.cpu.dcache.ReadReq_misses::.cpu.data        88233                       # number of ReadReq misses
system.cpu.dcache.ReadReq_misses::total         88233                       # number of ReadReq misses
system.cpu.dcache.ReadReq_miss_latency::.cpu.data   6952789500                       # number of ReadReq miss cycles
system.cpu.dcache.ReadReq_miss_latency::total   6952789500                       # number of ReadReq miss cycles
system.cpu.dcache.ReadReq_accesses::.cpu.data      5688295                       # number of ReadReq accesses(hits+misses)
system.cpu.dcache.ReadReq_accesses::total      5688295                       # number of ReadReq accesses(hits+misses)
system.cpu.dcache.ReadReq_miss_rate::.cpu.data     0.015511                       # miss rate for ReadReq accesses
system.cpu.dcache.ReadReq_miss_rate::total     0.015511                       # miss rate for ReadReq accesses
system.cpu.dcache.ReadReq_avg_miss_latency::.cpu.data 78800.329809                       # average ReadReq miss latency
system.cpu.dcache.ReadReq_avg_miss_latency::total 78800.329809                       # average ReadReq miss latency
system.cpu.dcache.ReadReq_mshr_hits::.cpu.data          790                       # number of ReadReq MSHR hits
system.cpu.dcache.ReadReq_mshr_hits::total          790                       # number of ReadReq MSHR hits
system.cpu.dcache.ReadReq_mshr_misses::.cpu.data        87443                       # number of ReadReq MSHR misses
system.cpu.dcache.ReadReq_mshr_misses::total        87443                       # number of ReadReq MSHR misses
system.cpu.dcache.ReadReq_mshr_miss_latency::.cpu.data   6801495500                       # number of ReadReq MSHR miss cycles
system.cpu.dcache.ReadReq_mshr_miss_latency::total   6801495500                       # number of ReadReq MSHR miss cycles
system.cpu.dcache.ReadReq_mshr_miss_rate::.cpu.data     0.015372                       # mshr miss rate for ReadReq accesses
system.cpu.dcache.ReadReq_mshr_miss_rate::total     0.015372                       # mshr miss rate for ReadReq accesses
system.cpu.dcache.ReadReq_avg_mshr_miss_latency::.cpu.data 77782.046590                       # average ReadReq mshr miss latency
system.cpu.dcache.ReadReq_avg_mshr_miss_latency::total 77782.046590                       # average ReadReq mshr miss latency
system.cpu.dcache.WriteReq_hits::.cpu.data      1269178                       # number of WriteReq hits
system.cpu.dcache.WriteReq_hits::total        1269178                       # number of WriteReq hits
system.cpu.dcache.WriteReq_misses::.cpu.data       186346                       # number of WriteReq misses
system.cpu.dcache.WriteReq_misses::total       186346                       # number of WriteReq misses
system.cpu.dcache.WriteReq_miss_latency::.cpu.data  11995008500                       # number of WriteReq miss cycles
system.cpu.dcache.WriteReq_miss_latency::total  11995008500                       # number of WriteReq miss cycles
system.cpu.dcache.WriteReq_accesses::.cpu.data      1455524                       # number of WriteReq accesses(hits+misses)
system.cpu.dcache.WriteReq_accesses::total      1455524                       # number of WriteReq accesses(hits+misses)
system.cpu.dcache.WriteReq_miss_rate::.cpu.data     0.128027                       # miss rate for WriteReq accesses
system.cpu.dcache.WriteReq_miss_rate::total     0.128027                       # miss rate for WriteReq accesses
system.cpu.dcache.WriteReq_avg_miss_latency::.cpu.data 64369.551801                       # average WriteReq miss latency
system.cpu.dcache.WriteReq_avg_miss_latency::total 64369.551801                       # average WriteReq miss latency
system.cpu.dcache.WriteReq_mshr_hits::.cpu.data        76606                       # number of WriteReq MSHR hits
system.cpu.dcache.WriteReq_mshr_hits::total        76606                       # number of WriteReq MSHR hits
system.cpu.dcache.WriteReq_mshr_misses::.cpu.data       109740                       # number of WriteReq MSHR misses
system.cpu.dcache.WriteReq_mshr_misses::total       109740                       # number of WriteReq MSHR misses
system.cpu.dcache.WriteReq_mshr_miss_latency::.cpu.data   8848448500                       # number of WriteReq MSHR miss cycles
system.cpu.dcache.WriteReq_mshr_miss_latency::total   8848448500                       # number of WriteReq MSHR miss cycles
system.cpu.dcache.WriteReq_mshr_miss_rate::.cpu.data     0.075396                       # mshr miss rate for WriteReq accesses
system.cpu.dcache.WriteReq_mshr_miss_rate::total     0.075396                       # mshr miss rate for WriteReq accesses
system.cpu.dcache.WriteReq_avg_mshr_miss_latency::.cpu.data 80631.023328                       # average WriteReq mshr miss latency
system.cpu.dcache.WriteReq_avg_mshr_miss_latency::total 80631.023328                       # average WriteReq mshr miss latency
system.cpu.dcache.SoftPFReq_hits::.cpu.data           90                       # number of SoftPFReq hits
system.cpu.dcache.SoftPFReq_hits::total            90                       # number of SoftPFReq hits
system.cpu.dcache.SoftPFReq_misses::.cpu.data         1522                       # number of SoftPFReq misses
system.cpu.dcache.SoftPFReq_misses::total         1522                       # number of SoftPFReq misses
system.cpu.dcache.SoftPFReq_accesses::.cpu.data         1612                       # number of SoftPFReq accesses(hits+misses)
system.cpu.dcache.SoftPFReq_accesses::total         1612                       # number of SoftPFReq accesses(hits+misses)
system.cpu.dcache.SoftPFReq_miss_rate::.cpu.data     0.944169                       # miss rate for SoftPFReq accesses
system.cpu.dcache.SoftPFReq_miss_rate::total     0.944169                       # miss rate for SoftPFReq accesses
system.cpu.dcache.SoftPFReq_mshr_misses::.cpu.data         1522                       # number of SoftPFReq MSHR misses
system.cpu.dcache.SoftPFReq_mshr_misses::total         1522                       # number of SoftPFReq MSHR misses
system.cpu.dcache.SoftPFReq_mshr_miss_latency::.cpu.data    116433999                       # number of SoftPFReq MSHR miss cycles
system.cpu.dcache.SoftPFReq_mshr_miss_latency::total    116433999                       # number of SoftPFReq MSHR miss cycles
system.cpu.dcache.SoftPFReq_mshr_miss_rate::.cpu.data     0.944169                       # mshr miss rate for SoftPFReq accesses
system.cpu.dcache.SoftPFReq_mshr_miss_rate::total     0.944169                       # mshr miss rate for SoftPFReq accesses
system.cpu.dcache.SoftPFReq_avg_mshr_miss_latency::.cpu.data 76500.656373                       # average SoftPFReq mshr miss latency
system.cpu.dcache.SoftPFReq_avg_mshr_miss_latency::total 76500.656373                       # average SoftPFReq mshr miss latency
system.cpu.dcache.LoadLockedReq_hits::.cpu.data           37                       # number of LoadLockedReq hits
system.cpu.dcache.LoadLockedReq_hits::total           37                       # number of LoadLockedReq hits
system.cpu.dcache.LoadLockedReq_misses::.cpu.data            1                       # number of LoadLockedReq misses
system.cpu.dcache.LoadLockedReq_misses::total            1                       # number of LoadLockedReq misses
system.cpu.dcache.LoadLockedReq_miss_latency::.cpu.data        72500                       # number of LoadLockedReq miss cycles
system.cpu.dcache.LoadLockedReq_miss_latency::total        72500                       # number of LoadLockedReq miss cycles
system.cpu.dcache.LoadLockedReq_accesses::.cpu.data           38                       # number of LoadLockedReq accesses(hits+misses)
system.cpu.dcache.LoadLockedReq_accesses::total           38                       # number of LoadLockedReq accesses(hits+misses)
system.cpu.dcache.LoadLockedReq_miss_rate::.cpu.data     0.026316                       # miss rate for LoadLockedReq accesses
system.cpu.dcache.LoadLockedReq_miss_rate::total     0.026316                       # miss rate for LoadLockedReq accesses
system.cpu.dcache.LoadLockedReq_avg_miss_latency::.cpu.data        72500                       # average LoadLockedReq miss latency
system.cpu.dcache.LoadLockedReq_avg_miss_latency::total        72500                       # average LoadLockedReq miss latency
system.cpu.dcache.LoadLockedReq_mshr_misses::.cpu.data            1                       # number of LoadLockedReq MSHR misses
system.cpu.dcache.LoadLockedReq_mshr_misses::total            1                       # number of LoadLockedReq MSHR misses
system.cpu.dcache.LoadLockedReq_mshr_miss_latency::.cpu.data        71500                       # number of LoadLockedReq MSHR miss cycles
system.cpu.dcache.LoadLockedReq_mshr_miss_latency::total        71500                       # number of LoadLockedReq MSHR miss cycles
system.cpu.dcache.LoadLockedReq_mshr_miss_rate::.cpu.data     0.026316                       # mshr miss rate for LoadLockedReq accesses
system.cpu.dcache.LoadLockedReq_mshr_miss_rate::total     0.026316                       # mshr miss rate for LoadLockedReq accesses
system.cpu.dcache.LoadLockedReq_avg_mshr_miss_latency::.cpu.data        71500                       # average LoadLockedReq mshr miss latency
system.cpu.dcache.LoadLockedReq_avg_mshr_miss_latency::total        71500                       # average LoadLockedReq mshr miss latency
system.cpu.dcache.StoreCondReq_hits::.cpu.data           38                       # number of StoreCondReq hits
system.cpu.dcache.StoreCondReq_hits::total           38                       # number of StoreCondReq hits
system.cpu.dcache.StoreCondReq_accesses::.cpu.data           38                       # number of StoreCondReq accesses(hits+misses)
system.cpu.dcache.StoreCondReq_accesses::total           38                       # number of StoreCondReq accesses(hits+misses)
system.cpu.dcache.tags.pwrStateResidencyTicks::UNDEFINED  19278157500                       # Cumulative time (in ticks) in various power states
system.cpu.dcache.tags.tagsinuse           958.715637                       # Cycle average of tags in use
system.cpu.dcache.tags.total_refs             7068111                       # Total number of references to valid blocks.
system.cpu.dcache.tags.sampled_refs            198706                       # Sample count of references to valid blocks.
system.cpu.dcache.tags.avg_refs             35.570697                       # Average number of references to valid blocks.
system.cpu.dcache.tags.warmup_cycle            176500                       # Cycle when the warmup percentage was hit.
system.cpu.dcache.tags.occ_blocks::.cpu.data   958.715637                       # Average occupied blocks per requestor
system.cpu.dcache.tags.occ_percent::.cpu.data     0.936246                       # Average percentage of cache occupancy
system.cpu.dcache.tags.occ_percent::total     0.936246                       # Average percentage of cache occupancy
system.cpu.dcache.tags.occ_task_id_blocks::1024         1024                       # Occupied blocks per task id
system.cpu.dcache.tags.age_task_id_blocks_1024::0            4                       # Occupied blocks per task id
system.cpu.dcache.tags.age_task_id_blocks_1024::1           38                       # Occupied blocks per task id
system.cpu.dcache.tags.age_task_id_blocks_1024::2          639                       # Occupied blocks per task id
system.cpu.dcache.tags.age_task_id_blocks_1024::3          343                       # Occupied blocks per task id
system.cpu.dcache.tags.occ_task_id_percent::1024            1                       # Percentage of cache occupancy per task id
system.cpu.dcache.tags.tag_accesses          28780734                       # Number of tag accesses
system.cpu.dcache.tags.data_accesses         28780734                       # Number of data accesses
system.cpu.itb.walker.pwrStateResidencyTicks::UNDEFINED  19278157500                       # Cumulative time (in ticks) in various power states
system.cpu.itb.stage2_mmu.stage2_tlb.walker.pwrStateResidencyTicks::UNDEFINED  19278157500                       # Cumulative time (in ticks) in various power states

---------- End Simulation Statistics   ----------
