
---------- Begin Simulation Statistics ----------
final_tick                                13611499500                       # Number of ticks from beginning of simulation (restored from checkpoints and never reset)
host_inst_rate                                 263404                       # Simulator instruction rate (inst/s)
host_mem_usage                                 706016                       # Number of bytes of host memory used
host_op_rate                                   264149                       # Simulator op (including micro ops) rate (op/s)
host_seconds                                    37.96                       # Real time elapsed on the host
host_tick_rate                              358531304                       # Simulator tick rate (ticks/s)
sim_freq                                 1000000000000                       # Frequency of simulated ticks
sim_insts                                    10000000                       # Number of instructions simulated
sim_ops                                      10028308                       # Number of ops (including micro ops) simulated
sim_seconds                                  0.013611                       # Number of seconds simulated
sim_ticks                                 13611499500                       # Number of ticks simulated
system.cpu.branchPred.BTBCorrect                    0                       # Number of correct BTB predictions (this stat may not work properly.
system.cpu.branchPred.BTBHitPct             98.744866                       # BTB Hit Percentage
system.cpu.branchPred.BTBHits                  300294                       # Number of BTB hits
system.cpu.branchPred.BTBLookups               304111                       # Number of BTB lookups
system.cpu.branchPred.RASInCorrect                  5                       # Number of incorrect RAS predictions.
system.cpu.branchPred.condIncorrect              7165                       # Number of conditional branches incorrect
system.cpu.branchPred.condPredicted            603871                       # Number of conditional branches predicted
system.cpu.branchPred.indirectHits                128                       # Number of indirect target hits.
system.cpu.branchPred.indirectLookups             420                       # Number of indirect predictor lookups.
system.cpu.branchPred.indirectMisses              292                       # Number of indirect misses.
system.cpu.branchPred.lookups                  716825                       # Number of BP lookups
system.cpu.branchPred.usedRAS                    6950                       # Number of times the RAS was used to get a target.
system.cpu.branchPredindirectMispredicted          168                       # Number of mispredicted indirect branches.
system.cpu.committedInsts                    10000000                       # Number of instructions committed
system.cpu.committedOps                      10028308                       # Number of ops (including micro ops) committed
system.cpu.cpi                               2.722300                       # CPI: cycles per instruction
system.cpu.discardedOps                         15353                       # Number of ops (including micro ops) which were discarded before commit
system.cpu.dtb.accesses                             0                       # DTB accesses
system.cpu.dtb.align_faults                         0                       # Number of TLB faults due to alignment restrictions
system.cpu.dtb.domain_faults                        0                       # Number of TLB faults due to domain restrictions
system.cpu.dtb.flush_entries                        0                       # Number of entries that have been flushed from TLB
system.cpu.dtb.flush_tlb                            0                       # Number of times complete TLB was flushed
system.cpu.dtb.flush_tlb_asid                       0                       # Number of times TLB was flushed by ASID
system.cpu.dtb.flush_tlb_mva                        0                       # Number of times TLB was flushed by MVA
system.cpu.dtb.flush_tlb_mva_asid                   0                       # Number of times TLB was flushed by MVA & ASID
system.cpu.dtb.hits                                 0                       # DTB hits
system.cpu.dtb.inst_accesses                        0                       # ITB inst accesses
system.cpu.dtb.inst_hits                            0                       # ITB inst hits
system.cpu.dtb.inst_misses                          0                       # ITB inst misses
system.cpu.dtb.misses                               0                       # DTB misses
system.cpu.dtb.perms_faults                         0                       # Number of TLB faults due to permissions restrictions
system.cpu.dtb.prefetch_faults                      0                       # Number of TLB faults due to prefetch
system.cpu.dtb.read_accesses                        0                       # DTB read accesses
system.cpu.dtb.read_hits                            0                       # DTB read hits
system.cpu.dtb.read_misses                          0                       # DTB read misses
system.cpu.dtb.stage2_mmu.stage2_tlb.accesses            0                       # DTB accesses
system.cpu.dtb.stage2_mmu.stage2_tlb.align_faults            0                       # Number of TLB faults due to alignment restrictions
system.cpu.dtb.stage2_mmu.stage2_tlb.domain_faults            0                       # Number of TLB faults due to domain restrictions
system.cpu.dtb.stage2_mmu.stage2_tlb.flush_entries            0                       # Number of entries that have been flushed from TLB
system.cpu.dtb.stage2_mmu.stage2_tlb.flush_tlb            0                       # Number of times complete TLB was flushed
system.cpu.dtb.stage2_mmu.stage2_tlb.flush_tlb_asid            0                       # Number of times TLB was flushed by ASID
system.cpu.dtb.stage2_mmu.stage2_tlb.flush_tlb_mva            0                       # Number of times TLB was flushed by MVA
system.cpu.dtb.stage2_mmu.stage2_tlb.flush_tlb_mva_asid            0                       # Number of times TLB was flushed by MVA & ASID
system.cpu.dtb.stage2_mmu.stage2_tlb.hits            0                       # DTB hits
system.cpu.dtb.stage2_mmu.stage2_tlb.inst_accesses            0                       # ITB inst accesses
system.cpu.dtb.stage2_mmu.stage2_tlb.inst_hits            0                       # ITB inst hits
system.cpu.dtb.stage2_mmu.stage2_tlb.inst_misses            0                       # ITB inst misses
system.cpu.dtb.stage2_mmu.stage2_tlb.misses            0                       # DTB misses
system.cpu.dtb.stage2_mmu.stage2_tlb.perms_faults            0                       # Number of TLB faults due to permissions restrictions
system.cpu.dtb.stage2_mmu.stage2_tlb.prefetch_faults            0                       # Number of TLB faults due to prefetch
system.cpu.dtb.stage2_mmu.stage2_tlb.read_accesses            0                       # DTB read accesses
system.cpu.dtb.stage2_mmu.stage2_tlb.read_hits            0                       # DTB read hits
system.cpu.dtb.stage2_mmu.stage2_tlb.read_misses            0                       # DTB read misses
system.cpu.dtb.stage2_mmu.stage2_tlb.walker.walkRequestOrigin_Requested::Data            0                       # Table walker requests started/completed, data/inst
system.cpu.dtb.stage2_mmu.stage2_tlb.walker.walkRequestOrigin_Requested::Inst            0                       # Table walker requests started/completed, data/inst
system.cpu.dtb.stage2_mmu.stage2_tlb.walker.walkRequestOrigin_Requested::total            0                       # Table walker requests started/completed, data/inst
system.cpu.dtb.stage2_mmu.stage2_tlb.walker.walkRequestOrigin_Completed::Data            0                       # Table walker requests started/completed, data/inst
system.cpu.dtb.stage2_mmu.stage2_tlb.walker.walkRequestOrigin_Completed::Inst            0                       # Table walker requests started/completed, data/inst
system.cpu.dtb.stage2_mmu.stage2_tlb.walker.walkRequestOrigin_Completed::total            0                       # Table walker requests started/completed, data/inst
system.cpu.dtb.stage2_mmu.stage2_tlb.walker.walkRequestOrigin::total            0                       # Table walker requests started/completed, data/inst
system.cpu.dtb.stage2_mmu.stage2_tlb.walker.walks            0                       # Table walker walks requested
system.cpu.dtb.stage2_mmu.stage2_tlb.write_accesses            0                       # DTB write accesses
system.cpu.dtb.stage2_mmu.stage2_tlb.write_hits            0                       # DTB write hits
system.cpu.dtb.stage2_mmu.stage2_tlb.write_misses            0                       # DTB write misses
system.cpu.dtb.walker.walkRequestOrigin_Requested::Data            0                       # Table walker requests started/completed, data/inst
system.cpu.dtb.walker.walkRequestOrigin_Requested::Inst            0                       # Table walker requests started/completed, data/inst
system.cpu.dtb.walker.walkRequestOrigin_Requested::total            0                       # Table walker requests started/completed, data/inst
system.cpu.dtb.walker.walkRequestOrigin_Completed::Data            0                       # Table walker requests started/completed, data/inst
system.cpu.dtb.walker.walkRequestOrigin_Completed::Inst            0                       # Table walker requests started/completed, data/inst
system.cpu.dtb.walker.walkRequestOrigin_Completed::total            0                       # Table walker requests started/completed, data/inst
system.cpu.dtb.walker.walkRequestOrigin::total            0                       # Table walker requests started/completed, data/inst
system.cpu.dtb.walker.walks                         0                       # Table walker walks requested
system.cpu.dtb.write_accesses                       0                       # DTB write accesses
system.cpu.dtb.write_hits                           0                       # DTB write hits
system.cpu.dtb.write_misses                         0                       # DTB write misses
system.cpu.fetch2.amo_instructions                  0                       # Number of memory atomic instructions successfully decoded
system.cpu.fetch2.fp_instructions                   0                       # Number of floating point instructions successfully decoded
system.cpu.fetch2.int_instructions            2169439                       # Number of integer instructions successfully decoded
system.cpu.fetch2.load_instructions           5801209                       # Number of memory load instructions successfully decoded
system.cpu.fetch2.store_instructions          1454467                       # Number of memory store instructions successfully decoded
system.cpu.fetch2.vec_instructions                  0                       # Number of SIMD instructions successfully decoded
system.cpu.idleCycles                        12722288                       # Total number of cycles that the object has spent stopped
system.cpu.ipc                               0.367336                       # IPC: instructions per cycle
system.cpu.itb.accesses                             0                       # DTB accesses
system.cpu.itb.align_faults                         0                       # Number of TLB faults due to alignment restrictions
system.cpu.itb.domain_faults                        0                       # Number of TLB faults due to domain restrictions
system.cpu.itb.flush_entries                        0                       # Number of entries that have been flushed from TLB
system.cpu.itb.flush_tlb                            0                       # Number of times complete TLB was flushed
system.cpu.itb.flush_tlb_asid                       0                       # Number of times TLB was flushed by ASID
system.cpu.itb.flush_tlb_mva                        0                       # Number of times TLB was flushed by MVA
system.cpu.itb.flush_tlb_mva_asid                   0                       # Number of times TLB was flushed by MVA & ASID
system.cpu.itb.hits                                 0                       # DTB hits
system.cpu.itb.inst_accesses                        0                       # ITB inst accesses
system.cpu.itb.inst_hits                            0                       # ITB inst hits
system.cpu.itb.inst_misses                          0                       # ITB inst misses
system.cpu.itb.misses                               0                       # DTB misses
system.cpu.itb.perms_faults                         0                       # Number of TLB faults due to permissions restrictions
system.cpu.itb.prefetch_faults                      0                       # Number of TLB faults due to prefetch
system.cpu.itb.read_accesses                        0                       # DTB read accesses
system.cpu.itb.read_hits                            0                       # DTB read hits
system.cpu.itb.read_misses                          0                       # DTB read misses
system.cpu.itb.stage2_mmu.stage2_tlb.accesses            0                       # DTB accesses
system.cpu.itb.stage2_mmu.stage2_tlb.align_faults            0                       # Number of TLB faults due to alignment restrictions
system.cpu.itb.stage2_mmu.stage2_tlb.domain_faults            0                       # Number of TLB faults due to domain restrictions
system.cpu.itb.stage2_mmu.stage2_tlb.flush_entries            0                       # Number of entries that have been flushed from TLB
system.cpu.itb.stage2_mmu.stage2_tlb.flush_tlb            0                       # Number of times complete TLB was flushed
system.cpu.itb.stage2_mmu.stage2_tlb.flush_tlb_asid            0                       # Number of times TLB was flushed by ASID
system.cpu.itb.stage2_mmu.stage2_tlb.flush_tlb_mva            0                       # Number of times TLB was flushed by MVA
system.cpu.itb.stage2_mmu.stage2_tlb.flush_tlb_mva_asid            0                       # Number of times TLB was flushed by MVA & ASID
system.cpu.itb.stage2_mmu.stage2_tlb.hits            0                       # DTB hits
system.cpu.itb.stage2_mmu.stage2_tlb.inst_accesses            0                       # ITB inst accesses
system.cpu.itb.stage2_mmu.stage2_tlb.inst_hits            0                       # ITB inst hits
system.cpu.itb.stage2_mmu.stage2_tlb.inst_misses            0                       # ITB inst misses
system.cpu.itb.stage2_mmu.stage2_tlb.misses            0                       # DTB misses
system.cpu.itb.stage2_mmu.stage2_tlb.perms_faults            0                       # Number of TLB faults due to permissions restrictions
system.cpu.itb.stage2_mmu.stage2_tlb.prefetch_faults            0                       # Number of TLB faults due to prefetch
system.cpu.itb.stage2_mmu.stage2_tlb.read_accesses            0                       # DTB read accesses
system.cpu.itb.stage2_mmu.stage2_tlb.read_hits            0                       # DTB read hits
system.cpu.itb.stage2_mmu.stage2_tlb.read_misses            0                       # DTB read misses
system.cpu.itb.stage2_mmu.stage2_tlb.walker.walkRequestOrigin_Requested::Data            0                       # Table walker requests started/completed, data/inst
system.cpu.itb.stage2_mmu.stage2_tlb.walker.walkRequestOrigin_Requested::Inst            0                       # Table walker requests started/completed, data/inst
system.cpu.itb.stage2_mmu.stage2_tlb.walker.walkRequestOrigin_Requested::total            0                       # Table walker requests started/completed, data/inst
system.cpu.itb.stage2_mmu.stage2_tlb.walker.walkRequestOrigin_Completed::Data            0                       # Table walker requests started/completed, data/inst
system.cpu.itb.stage2_mmu.stage2_tlb.walker.walkRequestOrigin_Completed::Inst            0                       # Table walker requests started/completed, data/inst
system.cpu.itb.stage2_mmu.stage2_tlb.walker.walkRequestOrigin_Completed::total            0                       # Table walker requests started/completed, data/inst
system.cpu.itb.stage2_mmu.stage2_tlb.walker.walkRequestOrigin::total            0                       # Table walker requests started/completed, data/inst
system.cpu.itb.stage2_mmu.stage2_tlb.walker.walks            0                       # Table walker walks requested
system.cpu.itb.stage2_mmu.stage2_tlb.write_accesses            0                       # DTB write accesses
system.cpu.itb.stage2_mmu.stage2_tlb.write_hits            0                       # DTB write hits
system.cpu.itb.stage2_mmu.stage2_tlb.write_misses            0                       # DTB write misses
system.cpu.itb.walker.walkRequestOrigin_Requested::Data            0                       # Table walker requests started/completed, data/inst
system.cpu.itb.walker.walkRequestOrigin_Requested::Inst            0                       # Table walker requests started/completed, data/inst
system.cpu.itb.walker.walkRequestOrigin_Requested::total            0                       # Table walker requests started/completed, data/inst
system.cpu.itb.walker.walkRequestOrigin_Completed::Data            0                       # Table walker requests started/completed, data/inst
system.cpu.itb.walker.walkRequestOrigin_Completed::Inst            0                       # Table walker requests started/completed, data/inst
system.cpu.itb.walker.walkRequestOrigin_Completed::total            0                       # Table walker requests started/completed, data/inst
system.cpu.itb.walker.walkRequestOrigin::total            0                       # Table walker requests started/completed, data/inst
system.cpu.itb.walker.walks                         0                       # Table walker walks requested
system.cpu.itb.write_accesses                       0                       # DTB write accesses
system.cpu.itb.write_hits                           0                       # DTB write hits
system.cpu.itb.write_misses                         0                       # DTB write misses
system.cpu.numCycles                         27222999                       # number of cpu cycles simulated
system.cpu.numFetchSuspends                         0                       # Number of times Execute suspended instruction fetching
system.cpu.numWorkItemsCompleted                    0                       # number of work items this cpu completed
system.cpu.numWorkItemsStarted                      0                       # number of work items this cpu started
system.cpu.op_class_0::No_OpClass                   0      0.00%      0.00% # Class of committed instruction
system.cpu.op_class_0::IntAlu                 2830128     28.22%     28.22% # Class of committed instruction
system.cpu.op_class_0::IntMult                  20549      0.20%     28.43% # Class of committed instruction
system.cpu.op_class_0::IntDiv                       0      0.00%     28.43% # Class of committed instruction
system.cpu.op_class_0::FloatAdd                     0      0.00%     28.43% # Class of committed instruction
system.cpu.op_class_0::FloatCmp                     0      0.00%     28.43% # Class of committed instruction
system.cpu.op_class_0::FloatCvt                     0      0.00%     28.43% # Class of committed instruction
system.cpu.op_class_0::FloatMult                    0      0.00%     28.43% # Class of committed instruction
system.cpu.op_class_0::FloatMultAcc                 0      0.00%     28.43% # Class of committed instruction
system.cpu.op_class_0::FloatDiv                     0      0.00%     28.43% # Class of committed instruction
system.cpu.op_class_0::FloatMisc                    0      0.00%     28.43% # Class of committed instruction
system.cpu.op_class_0::FloatSqrt                    0      0.00%     28.43% # Class of committed instruction
system.cpu.op_class_0::SimdAdd                      0      0.00%     28.43% # Class of committed instruction
system.cpu.op_class_0::SimdAddAcc                   0      0.00%     28.43% # Class of committed instruction
system.cpu.op_class_0::SimdAlu                      0      0.00%     28.43% # Class of committed instruction
system.cpu.op_class_0::SimdCmp                      0      0.00%     28.43% # Class of committed instruction
system.cpu.op_class_0::SimdCvt                      0      0.00%     28.43% # Class of committed instruction
system.cpu.op_class_0::SimdMisc                     0      0.00%     28.43% # Class of committed instruction
system.cpu.op_class_0::SimdMult                     0      0.00%     28.43% # Class of committed instruction
system.cpu.op_class_0::SimdMultAcc                  0      0.00%     28.43% # Class of committed instruction
system.cpu.op_class_0::SimdShift                    0      0.00%     28.43% # Class of committed instruction
system.cpu.op_class_0::SimdShiftAcc                 0      0.00%     28.43% # Class of committed instruction
system.cpu.op_class_0::SimdDiv                      0      0.00%     28.43% # Class of committed instruction
system.cpu.op_class_0::SimdSqrt                     0      0.00%     28.43% # Class of committed instruction
system.cpu.op_class_0::SimdFloatAdd                 0      0.00%     28.43% # Class of committed instruction
system.cpu.op_class_0::SimdFloatAlu                 0      0.00%     28.43% # Class of committed instruction
system.cpu.op_class_0::SimdFloatCmp                 0      0.00%     28.43% # Class of committed instruction
system.cpu.op_class_0::SimdFloatCvt                 0      0.00%     28.43% # Class of committed instruction
system.cpu.op_class_0::SimdFloatDiv                 0      0.00%     28.43% # Class of committed instruction
system.cpu.op_class_0::SimdFloatMisc               18      0.00%     28.43% # Class of committed instruction
system.cpu.op_class_0::SimdFloatMult                0      0.00%     28.43% # Class of committed instruction
system.cpu.op_class_0::SimdFloatMultAcc             0      0.00%     28.43% # Class of committed instruction
system.cpu.op_class_0::SimdFloatSqrt                0      0.00%     28.43% # Class of committed instruction
system.cpu.op_class_0::SimdReduceAdd                0      0.00%     28.43% # Class of committed instruction
system.cpu.op_class_0::SimdReduceAlu                0      0.00%     28.43% # Class of committed instruction
system.cpu.op_class_0::SimdReduceCmp                0      0.00%     28.43% # Class of committed instruction
system.cpu.op_class_0::SimdFloatReduceAdd            0      0.00%     28.43% # Class of committed instruction
system.cpu.op_class_0::SimdFloatReduceCmp            0      0.00%     28.43% # Class of committed instruction
system.cpu.op_class_0::SimdAes                      0      0.00%     28.43% # Class of committed instruction
system.cpu.op_class_0::SimdAesMix                   0      0.00%     28.43% # Class of committed instruction
system.cpu.op_class_0::SimdSha1Hash                 0      0.00%     28.43% # Class of committed instruction
system.cpu.op_class_0::SimdSha1Hash2                0      0.00%     28.43% # Class of committed instruction
system.cpu.op_class_0::SimdSha256Hash               0      0.00%     28.43% # Class of committed instruction
system.cpu.op_class_0::SimdSha256Hash2              0      0.00%     28.43% # Class of committed instruction
system.cpu.op_class_0::SimdShaSigma2                0      0.00%     28.43% # Class of committed instruction
system.cpu.op_class_0::SimdShaSigma3                0      0.00%     28.43% # Class of committed instruction
system.cpu.op_class_0::SimdPredAlu                  0      0.00%     28.43% # Class of committed instruction
system.cpu.op_class_0::MemRead                5721911     57.06%     85.48% # Class of committed instruction
system.cpu.op_class_0::MemWrite               1455702     14.52%    100.00% # Class of committed instruction
system.cpu.op_class_0::FloatMemRead                 0      0.00%    100.00% # Class of committed instruction
system.cpu.op_class_0::FloatMemWrite                0      0.00%    100.00% # Class of committed instruction
system.cpu.op_class_0::IprAccess                    0      0.00%    100.00% # Class of committed instruction
system.cpu.op_class_0::InstPrefetch                 0      0.00%    100.00% # Class of committed instruction
system.cpu.op_class_0::total                 10028308                       # Class of committed instruction
system.cpu.tickCycles                        14500711                       # Number of cycles that the object actually ticked
system.cpu.workload.numSyscalls                    84                       # Number of system calls
system.membus.snoop_filter.hit_multi_requests            0                       # Number of requests hitting in the snoop filter with multiple (>1) holders of the requested data.
system.membus.snoop_filter.hit_multi_snoops            0                       # Number of snoops hitting in the snoop filter with multiple (>1) holders of the requested data.
system.membus.snoop_filter.hit_single_requests        54637                       # Number of requests hitting in the snoop filter with a single holder of the requested data.
system.membus.snoop_filter.hit_single_snoops            0                       # Number of snoops hitting in the snoop filter with a single holder of the requested data.
system.membus.snoop_filter.tot_requests        134413                       # Total number of requests made to the snoop filter.
system.membus.snoop_filter.tot_snoops               0                       # Total number of snoops made to the snoop filter.
system.tol2bus.snoop_filter.hit_multi_requests          495                       # Number of requests hitting in the snoop filter with multiple (>1) holders of the requested data.
system.tol2bus.snoop_filter.hit_multi_snoops            0                       # Number of snoops hitting in the snoop filter with multiple (>1) holders of the requested data.
system.tol2bus.snoop_filter.hit_single_requests        87324                       # Number of requests hitting in the snoop filter with a single holder of the requested data.
system.tol2bus.snoop_filter.hit_single_snoops           68                       # Number of snoops hitting in the snoop filter with a single holder of the requested data.
system.tol2bus.snoop_filter.tot_requests       175066                       # Total number of requests made to the snoop filter.
system.tol2bus.snoop_filter.tot_snoops             68                       # Total number of snoops made to the snoop filter.
system.membus.pwrStateResidencyTicks::UNDEFINED  13611499500                       # Cumulative time (in ticks) in various power states
system.membus.trans_dist::ReadResp              29286                       # Transaction distribution
system.membus.trans_dist::WritebackDirty        33418                       # Transaction distribution
system.membus.trans_dist::CleanEvict            21218                       # Transaction distribution
system.membus.trans_dist::ReadExReq             50491                       # Transaction distribution
system.membus.trans_dist::ReadExResp            50491                       # Transaction distribution
system.membus.trans_dist::ReadSharedReq         29286                       # Transaction distribution
system.membus.pkt_count_system.l2.mem_side::system.mem_ctrls.port       214190                       # Packet count per connected master and slave (bytes)
system.membus.pkt_count::total                 214190                       # Packet count per connected master and slave (bytes)
system.membus.pkt_size_system.l2.mem_side::system.mem_ctrls.port     14488960                       # Cumulative packet size per connected master and slave (bytes)
system.membus.pkt_size::total                14488960                       # Cumulative packet size per connected master and slave (bytes)
system.membus.snoops                                0                       # Total snoops (count)
system.membus.snoopTraffic                          0                       # Total snoop traffic (bytes)
system.membus.snoop_fanout::samples             79777                       # Request fanout histogram
system.membus.snoop_fanout::mean                    0                       # Request fanout histogram
system.membus.snoop_fanout::stdev                   0                       # Request fanout histogram
system.membus.snoop_fanout::underflows              0      0.00%      0.00% # Request fanout histogram
system.membus.snoop_fanout::0                   79777    100.00%    100.00% # Request fanout histogram
system.membus.snoop_fanout::1                       0      0.00%    100.00% # Request fanout histogram
system.membus.snoop_fanout::overflows               0      0.00%    100.00% # Request fanout histogram
system.membus.snoop_fanout::min_value               0                       # Request fanout histogram
system.membus.snoop_fanout::max_value               0                       # Request fanout histogram
system.membus.snoop_fanout::total               79777                       # Request fanout histogram
system.membus.respLayer1.occupancy          740501250                       # Layer occupancy (ticks)
system.membus.respLayer1.utilization              5.4                       # Layer utilization (%)
system.membus.reqLayer0.occupancy           422205000                       # Layer occupancy (ticks)
system.membus.reqLayer0.utilization               3.1                       # Layer utilization (%)
system.tol2bus.pwrStateResidencyTicks::UNDEFINED  13611499500                       # Cumulative time (in ticks) in various power states
system.tol2bus.trans_dist::ReadResp             33362                       # Transaction distribution
system.tol2bus.trans_dist::WritebackDirty        89783                       # Transaction distribution
system.tol2bus.trans_dist::WritebackClean          403                       # Transaction distribution
system.tol2bus.trans_dist::CleanEvict           51825                       # Transaction distribution
system.tol2bus.trans_dist::ReadExReq            54386                       # Transaction distribution
system.tol2bus.trans_dist::ReadExResp           54386                       # Transaction distribution
system.tol2bus.trans_dist::ReadCleanReq           577                       # Transaction distribution
system.tol2bus.trans_dist::ReadSharedReq        32785                       # Transaction distribution
system.tol2bus.pkt_count_system.cpu.icache.mem_side::system.l2.cpu_side         1557                       # Packet count per connected master and slave (bytes)
system.tol2bus.pkt_count_system.cpu.dcache.mem_side::system.l2.cpu_side       261257                       # Packet count per connected master and slave (bytes)
system.tol2bus.pkt_count::total                262814                       # Packet count per connected master and slave (bytes)
system.tol2bus.pkt_size_system.cpu.icache.mem_side::system.l2.cpu_side       125440                       # Cumulative packet size per connected master and slave (bytes)
system.tol2bus.pkt_size_system.cpu.dcache.mem_side::system.l2.cpu_side     18372608                       # Cumulative packet size per connected master and slave (bytes)
system.tol2bus.pkt_size::total               18498048                       # Cumulative packet size per connected master and slave (bytes)
system.tol2bus.snoops                           54693                       # Total snoops (count)
system.tol2bus.snoopTraffic                   4277504                       # Total snoop traffic (bytes)
system.tol2bus.snoop_fanout::samples           142441                       # Request fanout histogram
system.tol2bus.snoop_fanout::mean            0.003995                       # Request fanout histogram
system.tol2bus.snoop_fanout::stdev           0.063077                       # Request fanout histogram
system.tol2bus.snoop_fanout::underflows             0      0.00%      0.00% # Request fanout histogram
system.tol2bus.snoop_fanout::0                 141872     99.60%     99.60% # Request fanout histogram
system.tol2bus.snoop_fanout::1                    569      0.40%    100.00% # Request fanout histogram
system.tol2bus.snoop_fanout::2                      0      0.00%    100.00% # Request fanout histogram
system.tol2bus.snoop_fanout::overflows              0      0.00%    100.00% # Request fanout histogram
system.tol2bus.snoop_fanout::min_value              0                       # Request fanout histogram
system.tol2bus.snoop_fanout::max_value              1                       # Request fanout histogram
system.tol2bus.snoop_fanout::total             142441                       # Request fanout histogram
system.tol2bus.reqLayer0.occupancy          201069000                       # Layer occupancy (ticks)
system.tol2bus.reqLayer0.utilization              1.5                       # Layer utilization (%)
system.tol2bus.respLayer1.occupancy         217929995                       # Layer occupancy (ticks)
system.tol2bus.respLayer1.utilization             1.6                       # Layer utilization (%)
system.tol2bus.respLayer0.occupancy           1442500                       # Layer occupancy (ticks)
system.tol2bus.respLayer0.utilization             0.0                       # Layer utilization (%)
system.voltage_domain.voltage                       1                       # Voltage in Volts
system.clk_domain.clock                          1000                       # Clock period in ticks
system.l2.pwrStateResidencyTicks::UNDEFINED  13611499500                       # Cumulative time (in ticks) in various power states
system.l2.demand_hits::.cpu.inst                  242                       # number of demand (read+write) hits
system.l2.demand_hits::.cpu.data                 7724                       # number of demand (read+write) hits
system.l2.demand_hits::total                     7966                       # number of demand (read+write) hits
system.l2.overall_hits::.cpu.inst                 242                       # number of overall hits
system.l2.overall_hits::.cpu.data                7724                       # number of overall hits
system.l2.overall_hits::total                    7966                       # number of overall hits
system.l2.demand_misses::.cpu.inst                335                       # number of demand (read+write) misses
system.l2.demand_misses::.cpu.data              79447                       # number of demand (read+write) misses
system.l2.demand_misses::total                  79782                       # number of demand (read+write) misses
system.l2.overall_misses::.cpu.inst               335                       # number of overall misses
system.l2.overall_misses::.cpu.data             79447                       # number of overall misses
system.l2.overall_misses::total                 79782                       # number of overall misses
system.l2.demand_miss_latency::.cpu.inst     28865500                       # number of demand (read+write) miss cycles
system.l2.demand_miss_latency::.cpu.data   6973972000                       # number of demand (read+write) miss cycles
system.l2.demand_miss_latency::total       7002837500                       # number of demand (read+write) miss cycles
system.l2.overall_miss_latency::.cpu.inst     28865500                       # number of overall miss cycles
system.l2.overall_miss_latency::.cpu.data   6973972000                       # number of overall miss cycles
system.l2.overall_miss_latency::total      7002837500                       # number of overall miss cycles
system.l2.demand_accesses::.cpu.inst              577                       # number of demand (read+write) accesses
system.l2.demand_accesses::.cpu.data            87171                       # number of demand (read+write) accesses
system.l2.demand_accesses::total                87748                       # number of demand (read+write) accesses
system.l2.overall_accesses::.cpu.inst             577                       # number of overall (read+write) accesses
system.l2.overall_accesses::.cpu.data           87171                       # number of overall (read+write) accesses
system.l2.overall_accesses::total               87748                       # number of overall (read+write) accesses
system.l2.demand_miss_rate::.cpu.inst        0.580589                       # miss rate for demand accesses
system.l2.demand_miss_rate::.cpu.data        0.911393                       # miss rate for demand accesses
system.l2.demand_miss_rate::total            0.909217                       # miss rate for demand accesses
system.l2.overall_miss_rate::.cpu.inst       0.580589                       # miss rate for overall accesses
system.l2.overall_miss_rate::.cpu.data       0.911393                       # miss rate for overall accesses
system.l2.overall_miss_rate::total           0.909217                       # miss rate for overall accesses
system.l2.demand_avg_miss_latency::.cpu.inst 86165.671642                       # average overall miss latency
system.l2.demand_avg_miss_latency::.cpu.data 87781.439198                       # average overall miss latency
system.l2.demand_avg_miss_latency::total 87774.654684                       # average overall miss latency
system.l2.overall_avg_miss_latency::.cpu.inst 86165.671642                       # average overall miss latency
system.l2.overall_avg_miss_latency::.cpu.data 87781.439198                       # average overall miss latency
system.l2.overall_avg_miss_latency::total 87774.654684                       # average overall miss latency
system.l2.blocked_cycles::no_mshrs                  0                       # number of cycles access was blocked
system.l2.blocked_cycles::no_targets                0                       # number of cycles access was blocked
system.l2.blocked::no_mshrs                         0                       # number of cycles access was blocked
system.l2.blocked::no_targets                       0                       # number of cycles access was blocked
system.l2.avg_blocked_cycles::no_mshrs            nan                       # average number of cycles each access was blocked
system.l2.avg_blocked_cycles::no_targets          nan                       # average number of cycles each access was blocked
system.l2.writebacks::.writebacks               33418                       # number of writebacks
system.l2.writebacks::total                     33418                       # number of writebacks
system.l2.demand_mshr_hits::.cpu.data               5                       # number of demand (read+write) MSHR hits
system.l2.demand_mshr_hits::total                   5                       # number of demand (read+write) MSHR hits
system.l2.overall_mshr_hits::.cpu.data              5                       # number of overall MSHR hits
system.l2.overall_mshr_hits::total                  5                       # number of overall MSHR hits
system.l2.demand_mshr_misses::.cpu.inst           335                       # number of demand (read+write) MSHR misses
system.l2.demand_mshr_misses::.cpu.data         79442                       # number of demand (read+write) MSHR misses
system.l2.demand_mshr_misses::total             79777                       # number of demand (read+write) MSHR misses
system.l2.overall_mshr_misses::.cpu.inst          335                       # number of overall MSHR misses
system.l2.overall_mshr_misses::.cpu.data        79442                       # number of overall MSHR misses
system.l2.overall_mshr_misses::total            79777                       # number of overall MSHR misses
system.l2.demand_mshr_miss_latency::.cpu.inst     25515500                       # number of demand (read+write) MSHR miss cycles
system.l2.demand_mshr_miss_latency::.cpu.data   6179189000                       # number of demand (read+write) MSHR miss cycles
system.l2.demand_mshr_miss_latency::total   6204704500                       # number of demand (read+write) MSHR miss cycles
system.l2.overall_mshr_miss_latency::.cpu.inst     25515500                       # number of overall MSHR miss cycles
system.l2.overall_mshr_miss_latency::.cpu.data   6179189000                       # number of overall MSHR miss cycles
system.l2.overall_mshr_miss_latency::total   6204704500                       # number of overall MSHR miss cycles
system.l2.demand_mshr_miss_rate::.cpu.inst     0.580589                       # mshr miss rate for demand accesses
system.l2.demand_mshr_miss_rate::.cpu.data     0.911335                       # mshr miss rate for demand accesses
system.l2.demand_mshr_miss_rate::total       0.909160                       # mshr miss rate for demand accesses
system.l2.overall_mshr_miss_rate::.cpu.inst     0.580589                       # mshr miss rate for overall accesses
system.l2.overall_mshr_miss_rate::.cpu.data     0.911335                       # mshr miss rate for overall accesses
system.l2.overall_mshr_miss_rate::total      0.909160                       # mshr miss rate for overall accesses
system.l2.demand_avg_mshr_miss_latency::.cpu.inst 76165.671642                       # average overall mshr miss latency
system.l2.demand_avg_mshr_miss_latency::.cpu.data 77782.394703                       # average overall mshr miss latency
system.l2.demand_avg_mshr_miss_latency::total 77775.605751                       # average overall mshr miss latency
system.l2.overall_avg_mshr_miss_latency::.cpu.inst 76165.671642                       # average overall mshr miss latency
system.l2.overall_avg_mshr_miss_latency::.cpu.data 77782.394703                       # average overall mshr miss latency
system.l2.overall_avg_mshr_miss_latency::total 77775.605751                       # average overall mshr miss latency
system.l2.replacements                          54693                       # number of replacements
system.l2.WritebackDirty_hits::.writebacks        56365                       # number of WritebackDirty hits
system.l2.WritebackDirty_hits::total            56365                       # number of WritebackDirty hits
system.l2.WritebackDirty_accesses::.writebacks        56365                       # number of WritebackDirty accesses(hits+misses)
system.l2.WritebackDirty_accesses::total        56365                       # number of WritebackDirty accesses(hits+misses)
system.l2.WritebackClean_hits::.writebacks          382                       # number of WritebackClean hits
system.l2.WritebackClean_hits::total              382                       # number of WritebackClean hits
system.l2.WritebackClean_accesses::.writebacks          382                       # number of WritebackClean accesses(hits+misses)
system.l2.WritebackClean_accesses::total          382                       # number of WritebackClean accesses(hits+misses)
system.l2.CleanEvict_mshr_misses::.writebacks           11                       # number of CleanEvict MSHR misses
system.l2.CleanEvict_mshr_misses::total            11                       # number of CleanEvict MSHR misses
system.l2.CleanEvict_mshr_miss_rate::.writebacks          inf                       # mshr miss rate for CleanEvict accesses
system.l2.CleanEvict_mshr_miss_rate::total          inf                       # mshr miss rate for CleanEvict accesses
system.l2.ReadExReq_hits::.cpu.data              3895                       # number of ReadExReq hits
system.l2.ReadExReq_hits::total                  3895                       # number of ReadExReq hits
system.l2.ReadExReq_misses::.cpu.data           50491                       # number of ReadExReq misses
system.l2.ReadExReq_misses::total               50491                       # number of ReadExReq misses
system.l2.ReadExReq_miss_latency::.cpu.data   4609784000                       # number of ReadExReq miss cycles
system.l2.ReadExReq_miss_latency::total    4609784000                       # number of ReadExReq miss cycles
system.l2.ReadExReq_accesses::.cpu.data         54386                       # number of ReadExReq accesses(hits+misses)
system.l2.ReadExReq_accesses::total             54386                       # number of ReadExReq accesses(hits+misses)
system.l2.ReadExReq_miss_rate::.cpu.data     0.928382                       # miss rate for ReadExReq accesses
system.l2.ReadExReq_miss_rate::total         0.928382                       # miss rate for ReadExReq accesses
system.l2.ReadExReq_avg_miss_latency::.cpu.data 91299.122616                       # average ReadExReq miss latency
system.l2.ReadExReq_avg_miss_latency::total 91299.122616                       # average ReadExReq miss latency
system.l2.ReadExReq_mshr_misses::.cpu.data        50491                       # number of ReadExReq MSHR misses
system.l2.ReadExReq_mshr_misses::total          50491                       # number of ReadExReq MSHR misses
system.l2.ReadExReq_mshr_miss_latency::.cpu.data   4104874000                       # number of ReadExReq MSHR miss cycles
system.l2.ReadExReq_mshr_miss_latency::total   4104874000                       # number of ReadExReq MSHR miss cycles
system.l2.ReadExReq_mshr_miss_rate::.cpu.data     0.928382                       # mshr miss rate for ReadExReq accesses
system.l2.ReadExReq_mshr_miss_rate::total     0.928382                       # mshr miss rate for ReadExReq accesses
system.l2.ReadExReq_avg_mshr_miss_latency::.cpu.data 81299.122616                       # average ReadExReq mshr miss latency
system.l2.ReadExReq_avg_mshr_miss_latency::total 81299.122616                       # average ReadExReq mshr miss latency
system.l2.ReadCleanReq_hits::.cpu.inst            242                       # number of ReadCleanReq hits
system.l2.ReadCleanReq_hits::total                242                       # number of ReadCleanReq hits
system.l2.ReadCleanReq_misses::.cpu.inst          335                       # number of ReadCleanReq misses
system.l2.ReadCleanReq_misses::total              335                       # number of ReadCleanReq misses
system.l2.ReadCleanReq_miss_latency::.cpu.inst     28865500                       # number of ReadCleanReq miss cycles
system.l2.ReadCleanReq_miss_latency::total     28865500                       # number of ReadCleanReq miss cycles
system.l2.ReadCleanReq_accesses::.cpu.inst          577                       # number of ReadCleanReq accesses(hits+misses)
system.l2.ReadCleanReq_accesses::total            577                       # number of ReadCleanReq accesses(hits+misses)
system.l2.ReadCleanReq_miss_rate::.cpu.inst     0.580589                       # miss rate for ReadCleanReq accesses
system.l2.ReadCleanReq_miss_rate::total      0.580589                       # miss rate for ReadCleanReq accesses
system.l2.ReadCleanReq_avg_miss_latency::.cpu.inst 86165.671642                       # average ReadCleanReq miss latency
system.l2.ReadCleanReq_avg_miss_latency::total 86165.671642                       # average ReadCleanReq miss latency
system.l2.ReadCleanReq_mshr_misses::.cpu.inst          335                       # number of ReadCleanReq MSHR misses
system.l2.ReadCleanReq_mshr_misses::total          335                       # number of ReadCleanReq MSHR misses
system.l2.ReadCleanReq_mshr_miss_latency::.cpu.inst     25515500                       # number of ReadCleanReq MSHR miss cycles
system.l2.ReadCleanReq_mshr_miss_latency::total     25515500                       # number of ReadCleanReq MSHR miss cycles
system.l2.ReadCleanReq_mshr_miss_rate::.cpu.inst     0.580589                       # mshr miss rate for ReadCleanReq accesses
system.l2.ReadCleanReq_mshr_miss_rate::total     0.580589                       # mshr miss rate for ReadCleanReq accesses
system.l2.ReadCleanReq_avg_mshr_miss_latency::.cpu.inst 76165.671642                       # average ReadCleanReq mshr miss latency
system.l2.ReadCleanReq_avg_mshr_miss_latency::total 76165.671642                       # average ReadCleanReq mshr miss latency
system.l2.ReadSharedReq_hits::.cpu.data          3829                       # number of ReadSharedReq hits
system.l2.ReadSharedReq_hits::total              3829                       # number of ReadSharedReq hits
system.l2.ReadSharedReq_misses::.cpu.data        28956                       # number of ReadSharedReq misses
system.l2.ReadSharedReq_misses::total           28956                       # number of ReadSharedReq misses
system.l2.ReadSharedReq_miss_latency::.cpu.data   2364188000                       # number of ReadSharedReq miss cycles
system.l2.ReadSharedReq_miss_latency::total   2364188000                       # number of ReadSharedReq miss cycles
system.l2.ReadSharedReq_accesses::.cpu.data        32785                       # number of ReadSharedReq accesses(hits+misses)
system.l2.ReadSharedReq_accesses::total         32785                       # number of ReadSharedReq accesses(hits+misses)
system.l2.ReadSharedReq_miss_rate::.cpu.data     0.883209                       # miss rate for ReadSharedReq accesses
system.l2.ReadSharedReq_miss_rate::total     0.883209                       # miss rate for ReadSharedReq accesses
system.l2.ReadSharedReq_avg_miss_latency::.cpu.data 81647.603260                       # average ReadSharedReq miss latency
system.l2.ReadSharedReq_avg_miss_latency::total 81647.603260                       # average ReadSharedReq miss latency
system.l2.ReadSharedReq_mshr_hits::.cpu.data            5                       # number of ReadSharedReq MSHR hits
system.l2.ReadSharedReq_mshr_hits::total            5                       # number of ReadSharedReq MSHR hits
system.l2.ReadSharedReq_mshr_misses::.cpu.data        28951                       # number of ReadSharedReq MSHR misses
system.l2.ReadSharedReq_mshr_misses::total        28951                       # number of ReadSharedReq MSHR misses
system.l2.ReadSharedReq_mshr_miss_latency::.cpu.data   2074315000                       # number of ReadSharedReq MSHR miss cycles
system.l2.ReadSharedReq_mshr_miss_latency::total   2074315000                       # number of ReadSharedReq MSHR miss cycles
system.l2.ReadSharedReq_mshr_miss_rate::.cpu.data     0.883056                       # mshr miss rate for ReadSharedReq accesses
system.l2.ReadSharedReq_mshr_miss_rate::total     0.883056                       # mshr miss rate for ReadSharedReq accesses
system.l2.ReadSharedReq_avg_mshr_miss_latency::.cpu.data 71649.165832                       # average ReadSharedReq mshr miss latency
system.l2.ReadSharedReq_avg_mshr_miss_latency::total 71649.165832                       # average ReadSharedReq mshr miss latency
system.l2.tags.pwrStateResidencyTicks::UNDEFINED  13611499500                       # Cumulative time (in ticks) in various power states
system.l2.tags.tagsinuse                 19318.179674                       # Cycle average of tags in use
system.l2.tags.total_refs                      174555                       # Total number of references to valid blocks.
system.l2.tags.sampled_refs                     79800                       # Sample count of references to valid blocks.
system.l2.tags.avg_refs                      2.187406                       # Average number of references to valid blocks.
system.l2.tags.warmup_cycle                     82000                       # Cycle when the warmup percentage was hit.
system.l2.tags.occ_blocks::.writebacks      10.042368                       # Average occupied blocks per requestor
system.l2.tags.occ_blocks::.cpu.inst       231.538764                       # Average occupied blocks per requestor
system.l2.tags.occ_blocks::.cpu.data     19076.598542                       # Average occupied blocks per requestor
system.l2.tags.occ_percent::.writebacks      0.000306                       # Average percentage of cache occupancy
system.l2.tags.occ_percent::.cpu.inst        0.007066                       # Average percentage of cache occupancy
system.l2.tags.occ_percent::.cpu.data        0.582172                       # Average percentage of cache occupancy
system.l2.tags.occ_percent::total            0.589544                       # Average percentage of cache occupancy
system.l2.tags.occ_task_id_blocks::1024         25107                       # Occupied blocks per task id
system.l2.tags.age_task_id_blocks_1024::0            1                       # Occupied blocks per task id
system.l2.tags.age_task_id_blocks_1024::1           10                       # Occupied blocks per task id
system.l2.tags.age_task_id_blocks_1024::2          161                       # Occupied blocks per task id
system.l2.tags.age_task_id_blocks_1024::3        16406                       # Occupied blocks per task id
system.l2.tags.age_task_id_blocks_1024::4         8529                       # Occupied blocks per task id
system.l2.tags.occ_task_id_percent::1024     0.766205                       # Percentage of cache occupancy per task id
system.l2.tags.tag_accesses                    254371                       # Number of tag accesses
system.l2.tags.data_accesses                   254371                       # Number of data accesses
system.cpu_voltage_domain.voltage                   1                       # Voltage in Volts
system.mem_ctrls.pwrStateResidencyTicks::UNDEFINED  13611499500                       # Cumulative time (in ticks) in various power states
system.mem_ctrls.bytes_read::.cpu.inst          42880                       # Number of bytes read from this memory
system.mem_ctrls.bytes_read::.cpu.data       10168576                       # Number of bytes read from this memory
system.mem_ctrls.bytes_read::total           10211456                       # Number of bytes read from this memory
system.mem_ctrls.bytes_inst_read::.cpu.inst        42880                       # Number of instructions bytes read from this memory
system.mem_ctrls.bytes_inst_read::total         42880                       # Number of instructions bytes read from this memory
system.mem_ctrls.bytes_written::.writebacks      4277504                       # Number of bytes written to this memory
system.mem_ctrls.bytes_written::total         4277504                       # Number of bytes written to this memory
system.mem_ctrls.num_reads::.cpu.inst             335                       # Number of read requests responded to by this memory
system.mem_ctrls.num_reads::.cpu.data           79442                       # Number of read requests responded to by this memory
system.mem_ctrls.num_reads::total               79777                       # Number of read requests responded to by this memory
system.mem_ctrls.num_writes::.writebacks        33418                       # Number of write requests responded to by this memory
system.mem_ctrls.num_writes::total              33418                       # Number of write requests responded to by this memory
system.mem_ctrls.bw_read::.cpu.inst           3150277                       # Total read bandwidth from this memory (bytes/s)
system.mem_ctrls.bw_read::.cpu.data         747057736                       # Total read bandwidth from this memory (bytes/s)
system.mem_ctrls.bw_read::total             750208013                       # Total read bandwidth from this memory (bytes/s)
system.mem_ctrls.bw_inst_read::.cpu.inst      3150277                       # Instruction read bandwidth from this memory (bytes/s)
system.mem_ctrls.bw_inst_read::total          3150277                       # Instruction read bandwidth from this memory (bytes/s)
system.mem_ctrls.bw_write::.writebacks      314256633                       # Write bandwidth from this memory (bytes/s)
system.mem_ctrls.bw_write::total            314256633                       # Write bandwidth from this memory (bytes/s)
system.mem_ctrls.bw_total::.writebacks      314256633                       # Total bandwidth to/from this memory (bytes/s)
system.mem_ctrls.bw_total::.cpu.inst          3150277                       # Total bandwidth to/from this memory (bytes/s)
system.mem_ctrls.bw_total::.cpu.data        747057736                       # Total bandwidth to/from this memory (bytes/s)
system.mem_ctrls.bw_total::total           1064464646                       # Total bandwidth to/from this memory (bytes/s)
system.mem_ctrls.avgPriority_.writebacks::samples     66836.00                       # Average QoS priority value for accepted requests
system.mem_ctrls.avgPriority_.cpu.inst::samples       670.00                       # Average QoS priority value for accepted requests
system.mem_ctrls.avgPriority_.cpu.data::samples    158884.00                       # Average QoS priority value for accepted requests
system.mem_ctrls.priorityMinLatency      0.000000018750                       # per QoS priority minimum request to response latency (s)
system.mem_ctrls.priorityMaxLatency      0.000776161250                       # per QoS priority maximum request to response latency (s)
system.mem_ctrls.numReadWriteTurnArounds         4169                       # Number of turnarounds from READ to WRITE
system.mem_ctrls.numWriteReadTurnArounds         4169                       # Number of turnarounds from WRITE to READ
system.mem_ctrls.numStayReadState              265983                       # Number of times bus staying in READ state
system.mem_ctrls.numStayWriteState              62706                       # Number of times bus staying in WRITE state
system.mem_ctrls.readReqs                       79777                       # Number of read requests accepted
system.mem_ctrls.writeReqs                      33418                       # Number of write requests accepted
system.mem_ctrls.readBursts                    159554                       # Number of DRAM read bursts, including those serviced by the write queue
system.mem_ctrls.writeBursts                    66836                       # Number of DRAM write bursts, including those merged in the write queue
system.mem_ctrls.servicedByWrQ                      0                       # Number of DRAM read bursts serviced by the write queue
system.mem_ctrls.mergedWrBursts                     0                       # Number of DRAM write bursts merged with an existing one
system.mem_ctrls.neitherReadNorWriteReqs            0                       # Number of requests that are neither read nor write
system.mem_ctrls.perBankRdBursts::0             10248                       # Per bank write bursts
system.mem_ctrls.perBankRdBursts::1             10120                       # Per bank write bursts
system.mem_ctrls.perBankRdBursts::2             10018                       # Per bank write bursts
system.mem_ctrls.perBankRdBursts::3              9774                       # Per bank write bursts
system.mem_ctrls.perBankRdBursts::4             10050                       # Per bank write bursts
system.mem_ctrls.perBankRdBursts::5             10038                       # Per bank write bursts
system.mem_ctrls.perBankRdBursts::6             10026                       # Per bank write bursts
system.mem_ctrls.perBankRdBursts::7             10140                       # Per bank write bursts
system.mem_ctrls.perBankRdBursts::8              9760                       # Per bank write bursts
system.mem_ctrls.perBankRdBursts::9              9806                       # Per bank write bursts
system.mem_ctrls.perBankRdBursts::10             9978                       # Per bank write bursts
system.mem_ctrls.perBankRdBursts::11             9948                       # Per bank write bursts
system.mem_ctrls.perBankRdBursts::12            10026                       # Per bank write bursts
system.mem_ctrls.perBankRdBursts::13             9798                       # Per bank write bursts
system.mem_ctrls.perBankRdBursts::14             9788                       # Per bank write bursts
system.mem_ctrls.perBankRdBursts::15            10036                       # Per bank write bursts
system.mem_ctrls.perBankWrBursts::0              4128                       # Per bank write bursts
system.mem_ctrls.perBankWrBursts::1              4309                       # Per bank write bursts
system.mem_ctrls.perBankWrBursts::2              4292                       # Per bank write bursts
system.mem_ctrls.perBankWrBursts::3              4062                       # Per bank write bursts
system.mem_ctrls.perBankWrBursts::4              4100                       # Per bank write bursts
system.mem_ctrls.perBankWrBursts::5              4072                       # Per bank write bursts
system.mem_ctrls.perBankWrBursts::6              4186                       # Per bank write bursts
system.mem_ctrls.perBankWrBursts::7              4464                       # Per bank write bursts
system.mem_ctrls.perBankWrBursts::8              4178                       # Per bank write bursts
system.mem_ctrls.perBankWrBursts::9              4080                       # Per bank write bursts
system.mem_ctrls.perBankWrBursts::10             4082                       # Per bank write bursts
system.mem_ctrls.perBankWrBursts::11             4130                       # Per bank write bursts
system.mem_ctrls.perBankWrBursts::12             4340                       # Per bank write bursts
system.mem_ctrls.perBankWrBursts::13             4194                       # Per bank write bursts
system.mem_ctrls.perBankWrBursts::14             4100                       # Per bank write bursts
system.mem_ctrls.perBankWrBursts::15             4104                       # Per bank write bursts
system.mem_ctrls.avgRdQLen                       2.24                       # Average read queue length when enqueuing
system.mem_ctrls.avgWrQLen                      25.65                       # Average write queue length when enqueuing
system.mem_ctrls.totQLat                   2450938500                       # Total ticks spent queuing
system.mem_ctrls.totBusLat                  797770000                       # Total ticks spent in databus transfers
system.mem_ctrls.totMemAccLat              5442576000                       # Total ticks spent from burst creation until serviced by the DRAM
system.mem_ctrls.avgQLat                     15361.18                       # Average queueing delay per DRAM burst
system.mem_ctrls.avgBusLat                    5000.00                       # Average bus latency per DRAM burst
system.mem_ctrls.avgMemAccLat                34111.18                       # Average memory access latency per DRAM burst
system.mem_ctrls.numRdRetry                         0                       # Number of times read queue was full causing retry
system.mem_ctrls.numWrRetry                         0                       # Number of times write queue was full causing retry
system.mem_ctrls.readRowHits                   147593                       # Number of row buffer hits during reads
system.mem_ctrls.writeRowHits                   61833                       # Number of row buffer hits during writes
system.mem_ctrls.readRowHitRate                 92.50                       # Row buffer hit rate for reads
system.mem_ctrls.writeRowHitRate                92.51                       # Row buffer hit rate for writes
system.mem_ctrls.readPktSize::0                     0                       # Read request sizes (log2)
system.mem_ctrls.readPktSize::1                     0                       # Read request sizes (log2)
system.mem_ctrls.readPktSize::2                     0                       # Read request sizes (log2)
system.mem_ctrls.readPktSize::3                     0                       # Read request sizes (log2)
system.mem_ctrls.readPktSize::4                     0                       # Read request sizes (log2)
system.mem_ctrls.readPktSize::5                     0                       # Read request sizes (log2)
system.mem_ctrls.readPktSize::6                159554                       # Read request sizes (log2)
system.mem_ctrls.writePktSize::0                    0                       # Write request sizes (log2)
system.mem_ctrls.writePktSize::1                    0                       # Write request sizes (log2)
system.mem_ctrls.writePktSize::2                    0                       # Write request sizes (log2)
system.mem_ctrls.writePktSize::3                    0                       # Write request sizes (log2)
system.mem_ctrls.writePktSize::4                    0                       # Write request sizes (log2)
system.mem_ctrls.writePktSize::5                    0                       # Write request sizes (log2)
system.mem_ctrls.writePktSize::6                66836                       # Write request sizes (log2)
system.mem_ctrls.rdQLenPdf::0                   64179                       # What read queue length does an incoming req see
system.mem_ctrls.rdQLenPdf::1                   64240                       # What read queue length does an incoming req see
system.mem_ctrls.rdQLenPdf::2                   15593                       # What read queue length does an incoming req see
system.mem_ctrls.rdQLenPdf::3                   15533                       # What read queue length does an incoming req see
system.mem_ctrls.rdQLenPdf::4                       4                       # What read queue length does an incoming req see
system.mem_ctrls.rdQLenPdf::5                       3                       # What read queue length does an incoming req see
system.mem_ctrls.rdQLenPdf::6                       1                       # What read queue length does an incoming req see
system.mem_ctrls.rdQLenPdf::7                       1                       # What read queue length does an incoming req see
system.mem_ctrls.rdQLenPdf::8                       0                       # What read queue length does an incoming req see
system.mem_ctrls.rdQLenPdf::9                       0                       # What read queue length does an incoming req see
system.mem_ctrls.rdQLenPdf::10                      0                       # What read queue length does an incoming req see
system.mem_ctrls.rdQLenPdf::11                      0                       # What read queue length does an incoming req see
system.mem_ctrls.rdQLenPdf::12                      0                       # What read queue length does an incoming req see
system.mem_ctrls.rdQLenPdf::13                      0                       # What read queue length does an incoming req see
system.mem_ctrls.rdQLenPdf::14                      0                       # What read queue length does an incoming req see
system.mem_ctrls.rdQLenPdf::15                      0                       # What read queue length does an incoming req see
system.mem_ctrls.rdQLenPdf::16                      0                       # What read queue length does an incoming req see
system.mem_ctrls.rdQLenPdf::17                      0                       # What read queue length does an incoming req see
system.mem_ctrls.rdQLenPdf::18                      0                       # What read queue length does an incoming req see
system.mem_ctrls.rdQLenPdf::19                      0                       # What read queue length does an incoming req see
system.mem_ctrls.rdQLenPdf::20                      0                       # What read queue length does an incoming req see
system.mem_ctrls.rdQLenPdf::21                      0                       # What read queue length does an incoming req see
system.mem_ctrls.rdQLenPdf::22                      0                       # What read queue length does an incoming req see
system.mem_ctrls.rdQLenPdf::23                      0                       # What read queue length does an incoming req see
system.mem_ctrls.rdQLenPdf::24                      0                       # What read queue length does an incoming req see
system.mem_ctrls.rdQLenPdf::25                      0                       # What read queue length does an incoming req see
system.mem_ctrls.rdQLenPdf::26                      0                       # What read queue length does an incoming req see
system.mem_ctrls.rdQLenPdf::27                      0                       # What read queue length does an incoming req see
system.mem_ctrls.rdQLenPdf::28                      0                       # What read queue length does an incoming req see
system.mem_ctrls.rdQLenPdf::29                      0                       # What read queue length does an incoming req see
system.mem_ctrls.rdQLenPdf::30                      0                       # What read queue length does an incoming req see
system.mem_ctrls.rdQLenPdf::31                      0                       # What read queue length does an incoming req see
system.mem_ctrls.wrQLenPdf::0                       1                       # What write queue length does an incoming req see
system.mem_ctrls.wrQLenPdf::1                       1                       # What write queue length does an incoming req see
system.mem_ctrls.wrQLenPdf::2                       1                       # What write queue length does an incoming req see
system.mem_ctrls.wrQLenPdf::3                       1                       # What write queue length does an incoming req see
system.mem_ctrls.wrQLenPdf::4                       1                       # What write queue length does an incoming req see
system.mem_ctrls.wrQLenPdf::5                       1                       # What write queue length does an incoming req see
system.mem_ctrls.wrQLenPdf::6                       1                       # What write queue length does an incoming req see
system.mem_ctrls.wrQLenPdf::7                       1                       # What write queue length does an incoming req see
system.mem_ctrls.wrQLenPdf::8                       1                       # What write queue length does an incoming req see
system.mem_ctrls.wrQLenPdf::9                       1                       # What write queue length does an incoming req see
system.mem_ctrls.wrQLenPdf::10                      1                       # What write queue length does an incoming req see
system.mem_ctrls.wrQLenPdf::11                      1                       # What write queue length does an incoming req see
system.mem_ctrls.wrQLenPdf::12                      1                       # What write queue length does an incoming req see
system.mem_ctrls.wrQLenPdf::13                      1                       # What write queue length does an incoming req see
system.mem_ctrls.wrQLenPdf::14                      1                       # What write queue length does an incoming req see
system.mem_ctrls.wrQLenPdf::15                     29                       # What write queue length does an incoming req see
system.mem_ctrls.wrQLenPdf::16                     31                       # What write queue length does an incoming req see
system.mem_ctrls.wrQLenPdf::17                    727                       # What write queue length does an incoming req see
system.mem_ctrls.wrQLenPdf::18                   1552                       # What write queue length does an incoming req see
system.mem_ctrls.wrQLenPdf::19                   2273                       # What write queue length does an incoming req see
system.mem_ctrls.wrQLenPdf::20                   4202                       # What write queue length does an incoming req see
system.mem_ctrls.wrQLenPdf::21                   4210                       # What write queue length does an incoming req see
system.mem_ctrls.wrQLenPdf::22                   4189                       # What write queue length does an incoming req see
system.mem_ctrls.wrQLenPdf::23                   4176                       # What write queue length does an incoming req see
system.mem_ctrls.wrQLenPdf::24                   4223                       # What write queue length does an incoming req see
system.mem_ctrls.wrQLenPdf::25                   5170                       # What write queue length does an incoming req see
system.mem_ctrls.wrQLenPdf::26                   6451                       # What write queue length does an incoming req see
system.mem_ctrls.wrQLenPdf::27                   5510                       # What write queue length does an incoming req see
system.mem_ctrls.wrQLenPdf::28                   4268                       # What write queue length does an incoming req see
system.mem_ctrls.wrQLenPdf::29                   4397                       # What write queue length does an incoming req see
system.mem_ctrls.wrQLenPdf::30                   4314                       # What write queue length does an incoming req see
system.mem_ctrls.wrQLenPdf::31                   4185                       # What write queue length does an incoming req see
system.mem_ctrls.wrQLenPdf::32                   4175                       # What write queue length does an incoming req see
system.mem_ctrls.wrQLenPdf::33                   2732                       # What write queue length does an incoming req see
system.mem_ctrls.wrQLenPdf::34                      5                       # What write queue length does an incoming req see
system.mem_ctrls.wrQLenPdf::35                      2                       # What write queue length does an incoming req see
system.mem_ctrls.wrQLenPdf::36                      0                       # What write queue length does an incoming req see
system.mem_ctrls.wrQLenPdf::37                      0                       # What write queue length does an incoming req see
system.mem_ctrls.wrQLenPdf::38                      0                       # What write queue length does an incoming req see
system.mem_ctrls.wrQLenPdf::39                      0                       # What write queue length does an incoming req see
system.mem_ctrls.wrQLenPdf::40                      0                       # What write queue length does an incoming req see
system.mem_ctrls.wrQLenPdf::41                      0                       # What write queue length does an incoming req see
system.mem_ctrls.wrQLenPdf::42                      0                       # What write queue length does an incoming req see
system.mem_ctrls.wrQLenPdf::43                      0                       # What write queue length does an incoming req see
system.mem_ctrls.wrQLenPdf::44                      0                       # What write queue length does an incoming req see
system.mem_ctrls.wrQLenPdf::45                      0                       # What write queue length does an incoming req see
system.mem_ctrls.wrQLenPdf::46                      0                       # What write queue length does an incoming req see
system.mem_ctrls.wrQLenPdf::47                      0                       # What write queue length does an incoming req see
system.mem_ctrls.wrQLenPdf::48                      0                       # What write queue length does an incoming req see
system.mem_ctrls.wrQLenPdf::49                      0                       # What write queue length does an incoming req see
system.mem_ctrls.wrQLenPdf::50                      0                       # What write queue length does an incoming req see
system.mem_ctrls.wrQLenPdf::51                      0                       # What write queue length does an incoming req see
system.mem_ctrls.wrQLenPdf::52                      0                       # What write queue length does an incoming req see
system.mem_ctrls.wrQLenPdf::53                      0                       # What write queue length does an incoming req see
system.mem_ctrls.wrQLenPdf::54                      0                       # What write queue length does an incoming req see
system.mem_ctrls.wrQLenPdf::55                      0                       # What write queue length does an incoming req see
system.mem_ctrls.wrQLenPdf::56                      0                       # What write queue length does an incoming req see
system.mem_ctrls.wrQLenPdf::57                      0                       # What write queue length does an incoming req see
system.mem_ctrls.wrQLenPdf::58                      0                       # What write queue length does an incoming req see
system.mem_ctrls.wrQLenPdf::59                      0                       # What write queue length does an incoming req see
system.mem_ctrls.wrQLenPdf::60                      0                       # What write queue length does an incoming req see
system.mem_ctrls.wrQLenPdf::61                      0                       # What write queue length does an incoming req see
system.mem_ctrls.wrQLenPdf::62                      0                       # What write queue length does an incoming req see
system.mem_ctrls.wrQLenPdf::63                      0                       # What write queue length does an incoming req see
system.mem_ctrls.bytesPerActivate::samples        16949                       # Bytes accessed per row activation
system.mem_ctrls.bytesPerActivate::mean    854.799693                       # Bytes accessed per row activation
system.mem_ctrls.bytesPerActivate::gmean   742.909186                       # Bytes accessed per row activation
system.mem_ctrls.bytesPerActivate::stdev   306.590108                       # Bytes accessed per row activation
system.mem_ctrls.bytesPerActivate::0-127           85      0.50%      0.50% # Bytes accessed per row activation
system.mem_ctrls.bytesPerActivate::128-255         1497      8.83%      9.33% # Bytes accessed per row activation
system.mem_ctrls.bytesPerActivate::256-383          479      2.83%     12.16% # Bytes accessed per row activation
system.mem_ctrls.bytesPerActivate::384-511          688      4.06%     16.22% # Bytes accessed per row activation
system.mem_ctrls.bytesPerActivate::512-639          750      4.43%     20.64% # Bytes accessed per row activation
system.mem_ctrls.bytesPerActivate::640-767          385      2.27%     22.92% # Bytes accessed per row activation
system.mem_ctrls.bytesPerActivate::768-895          409      2.41%     25.33% # Bytes accessed per row activation
system.mem_ctrls.bytesPerActivate::896-1023          399      2.35%     27.68% # Bytes accessed per row activation
system.mem_ctrls.bytesPerActivate::1024-1151        12257     72.32%    100.00% # Bytes accessed per row activation
system.mem_ctrls.bytesPerActivate::total        16949                       # Bytes accessed per row activation
system.mem_ctrls.rdPerTurnAround::samples         4169                       # Reads before turning the bus around for writes
system.mem_ctrls.rdPerTurnAround::mean      38.255697                       # Reads before turning the bus around for writes
system.mem_ctrls.rdPerTurnAround::gmean     20.643417                       # Reads before turning the bus around for writes
system.mem_ctrls.rdPerTurnAround::stdev    154.626641                       # Reads before turning the bus around for writes
system.mem_ctrls.rdPerTurnAround::0-511          4157     99.71%     99.71% # Reads before turning the bus around for writes
system.mem_ctrls.rdPerTurnAround::512-1023           10      0.24%     99.95% # Reads before turning the bus around for writes
system.mem_ctrls.rdPerTurnAround::1536-2047            1      0.02%     99.98% # Reads before turning the bus around for writes
system.mem_ctrls.rdPerTurnAround::8704-9215            1      0.02%    100.00% # Reads before turning the bus around for writes
system.mem_ctrls.rdPerTurnAround::total          4169                       # Reads before turning the bus around for writes
[...]
system.cpu.icache.ReadReq_avg_miss_latency::total 57128.249567                       # average ReadReq miss latency
system.cpu.icache.ReadReq_mshr_misses::.cpu.inst          577                       # number of ReadReq MSHR misses
system.cpu.icache.ReadReq_mshr_misses::total          577                       # number of ReadReq MSHR misses
system.cpu.icache.ReadReq_mshr_miss_latency::.cpu.inst     32386000                       # number of ReadReq MSHR miss cycles
system.cpu.icache.ReadReq_mshr_miss_latency::total     32386000                       # number of ReadReq MSHR miss cycles
system.cpu.icache.ReadReq_mshr_miss_rate::.cpu.inst     0.000555                       # mshr miss rate for ReadReq accesses
system.cpu.icache.ReadReq_mshr_miss_rate::total     0.000555                       # mshr miss rate for ReadReq accesses
system.cpu.icache.ReadReq_avg_mshr_miss_latency::.cpu.inst 56128.249567                       # average ReadReq mshr miss latency
system.cpu.icache.ReadReq_avg_mshr_miss_latency::total 56128.249567                       # average ReadReq mshr miss latency
system.cpu.icache.tags.pwrStateResidencyTicks::UNDEFINED  13611499500                       # Cumulative time (in ticks) in various power states
system.cpu.icache.tags.tagsinuse           162.841150                       # Cycle average of tags in use
system.cpu.icache.tags.total_refs             1039089                       # Total number of references to valid blocks.
system.cpu.icache.tags.sampled_refs               577                       # Sample count of references to valid blocks.
system.cpu.icache.tags.avg_refs           1800.847487                       # Average number of references to valid blocks.
system.cpu.icache.tags.warmup_cycle             92500                       # Cycle when the warmup percentage was hit.
system.cpu.icache.tags.occ_blocks::.cpu.inst   162.841150                       # Average occupied blocks per requestor
system.cpu.icache.tags.occ_percent::.cpu.inst     0.636098                       # Average percentage of cache occupancy
system.cpu.icache.tags.occ_percent::total     0.636098                       # Average percentage of cache occupancy
system.cpu.icache.tags.occ_task_id_blocks::1024          174                       # Occupied blocks per task id
system.cpu.icache.tags.age_task_id_blocks_1024::3           76                       # Occupied blocks per task id
system.cpu.icache.tags.age_task_id_blocks_1024::4           98                       # Occupied blocks per task id
system.cpu.icache.tags.occ_task_id_percent::1024     0.679688                       # Percentage of cache occupancy per task id
system.cpu.icache.tags.tag_accesses           1039666                       # Number of tag accesses
system.cpu.icache.tags.data_accesses          1039666                       # Number of data accesses
system.cpu.dtb.walker.pwrStateResidencyTicks::UNDEFINED  13611499500                       # Cumulative time (in ticks) in various power states
system.cpu.dtb.stage2_mmu.stage2_tlb.walker.pwrStateResidencyTicks::UNDEFINED  13611499500                       # Cumulative time (in ticks) in various power states
system.cpu.dcache.pwrStateResidencyTicks::UNDEFINED  13611499500                       # Cumulative time (in ticks) in various power states
system.cpu.dcache.demand_hits::.cpu.data      7034273                       # number of demand (read+write) hits
system.cpu.dcache.demand_hits::total          7034273                       # number of demand (read+write) hits
system.cpu.dcache.overall_hits::.cpu.data      7034406                       # number of overall hits
system.cpu.dcache.overall_hits::total         7034406                       # number of overall hits
system.cpu.dcache.demand_misses::.cpu.data       106964                       # number of demand (read+write) misses
system.cpu.dcache.demand_misses::total         106964                       # number of demand (read+write) misses
system.cpu.dcache.overall_misses::.cpu.data       108444                       # number of overall misses
system.cpu.dcache.overall_misses::total        108444                       # number of overall misses
system.cpu.dcache.demand_miss_latency::.cpu.data   8828201500                       # number of demand (read+write) miss cycles
system.cpu.dcache.demand_miss_latency::total   8828201500                       # number of demand (read+write) miss cycles
system.cpu.dcache.overall_miss_latency::.cpu.data   8828201500                       # number of overall miss cycles
system.cpu.dcache.overall_miss_latency::total   8828201500                       # number of overall miss cycles
system.cpu.dcache.demand_accesses::.cpu.data      7141237                       # number of demand (read+write) accesses
system.cpu.dcache.demand_accesses::total      7141237                       # number of demand (read+write) accesses
system.cpu.dcache.overall_accesses::.cpu.data      7142850                       # number of overall (read+write) accesses
system.cpu.dcache.overall_accesses::total      7142850                       # number of overall (read+write) accesses
system.cpu.dcache.demand_miss_rate::.cpu.data     0.014978                       # miss rate for demand accesses
system.cpu.dcache.demand_miss_rate::total     0.014978                       # miss rate for demand accesses
system.cpu.dcache.overall_miss_rate::.cpu.data     0.015182                       # miss rate for overall accesses
system.cpu.dcache.overall_miss_rate::total     0.015182                       # miss rate for overall accesses
system.cpu.dcache.demand_avg_miss_latency::.cpu.data 82534.324633                       # average overall miss latency
system.cpu.dcache.demand_avg_miss_latency::total 82534.324633                       # average overall miss latency
system.cpu.dcache.overall_avg_miss_latency::.cpu.data 81407.929438                       # average overall miss latency
system.cpu.dcache.overall_avg_miss_latency::total 81407.929438                       # average overall miss latency
system.cpu.dcache.blocked_cycles::no_mshrs            0                       # number of cycles access was blocked
system.cpu.dcache.blocked_cycles::no_targets            0                       # number of cycles access was blocked
system.cpu.dcache.blocked::no_mshrs                 0                       # number of cycles access was blocked
system.cpu.dcache.blocked::no_targets               0                       # number of cycles access was blocked
system.cpu.dcache.avg_blocked_cycles::no_mshrs          nan                       # average number of cycles each access was blocked
system.cpu.dcache.avg_blocked_cycles::no_targets          nan                       # average number of cycles each access was blocked
system.cpu.dcache.writebacks::.writebacks        56365                       # number of writebacks
system.cpu.dcache.writebacks::total             56365                       # number of writebacks
system.cpu.dcache.demand_mshr_hits::.cpu.data        20556                       # number of demand (read+write) MSHR hits
system.cpu.dcache.demand_mshr_hits::total        20556                       # number of demand (read+write) MSHR hits
system.cpu.dcache.overall_mshr_hits::.cpu.data        20556                       # number of overall MSHR hits
system.cpu.dcache.overall_mshr_hits::total        20556                       # number of overall MSHR hits
system.cpu.dcache.demand_mshr_misses::.cpu.data        86408                       # number of demand (read+write) MSHR misses
system.cpu.dcache.demand_mshr_misses::total        86408                       # number of demand (read+write) MSHR misses
system.cpu.dcache.overall_mshr_misses::.cpu.data        87171                       # number of overall MSHR misses
system.cpu.dcache.overall_mshr_misses::total        87171                       # number of overall MSHR misses
system.cpu.dcache.demand_mshr_miss_latency::.cpu.data   7123604000                       # number of demand (read+write) MSHR miss cycles
system.cpu.dcache.demand_mshr_miss_latency::total   7123604000                       # number of demand (read+write) MSHR miss cycles
system.cpu.dcache.overall_mshr_miss_latency::.cpu.data   7201987000                       # number of overall MSHR miss cycles
system.cpu.dcache.overall_mshr_miss_latency::total   7201987000                       # number of overall MSHR miss cycles
system.cpu.dcache.demand_mshr_miss_rate::.cpu.data     0.012100                       # mshr miss rate for demand accesses
system.cpu.dcache.demand_mshr_miss_rate::total     0.012100                       # mshr miss rate for demand accesses
system.cpu.dcache.overall_mshr_miss_rate::.cpu.data     0.012204                       # mshr miss rate for overall accesses
system.cpu.dcache.overall_mshr_miss_rate::total     0.012204                       # mshr miss rate for overall accesses
system.cpu.dcache.demand_avg_mshr_miss_latency::.cpu.data 82441.486899                       # average overall mshr miss latency
system.cpu.dcache.demand_avg_mshr_miss_latency::total 82441.486899                       # average overall mshr miss latency
system.cpu.dcache.overall_avg_mshr_miss_latency::.cpu.data 82619.070562                       # average overall mshr miss latency
system.cpu.dcache.overall_avg_mshr_miss_latency::total 82619.070562                       # average overall mshr miss latency
system.cpu.dcache.replacements                  86915                       # number of replacements
system.cpu.dcache.ReadReq_hits::.cpu.data      5652896                       # number of ReadReq hits
system.cpu.dcache.ReadReq_hits::total         5652896                       # number of ReadReq hits
system.cpu.dcache.ReadReq_misses::.cpu.data        32843                       # number of ReadReq misses
system.cpu.dcache.ReadReq_misses::total         32843                       # number of ReadReq misses
system.cpu.dcache.ReadReq_miss_latency::.cpu.data   2461686000                       # number of ReadReq miss cycles
system.cpu.dcache.ReadReq_miss_latency::total   2461686000                       # number of ReadReq miss cycles
system.cpu.dcache.ReadReq_accesses::.cpu.data      5685739                       # number of ReadReq accesses(hits+misses)
system.cpu.dcache.ReadReq_accesses::total      5685739                       # number of ReadReq accesses(hits+misses)
system.cpu.dcache.ReadReq_miss_rate::.cpu.data     0.005776                       # miss rate for ReadReq accesses
system.cpu.dcache.ReadReq_miss_rate::total     0.005776                       # miss rate for ReadReq accesses
system.cpu.dcache.ReadReq_avg_miss_latency::.cpu.data 74953.140700                       # average ReadReq miss latency
system.cpu.dcache.ReadReq_avg_miss_latency::total 74953.140700                       # average ReadReq miss latency
system.cpu.dcache.ReadReq_mshr_hits::.cpu.data          821                       # number of ReadReq MSHR hits
system.cpu.dcache.ReadReq_mshr_hits::total          821                       # number of ReadReq MSHR hits
system.cpu.dcache.ReadReq_mshr_misses::.cpu.data        32022                       # number of ReadReq MSHR misses
system.cpu.dcache.ReadReq_mshr_misses::total        32022                       # number of ReadReq MSHR misses
system.cpu.dcache.ReadReq_mshr_miss_latency::.cpu.data   2383865500                       # number of ReadReq MSHR miss cycles
system.cpu.dcache.ReadReq_mshr_miss_latency::total   2383865500                       # number of ReadReq MSHR miss cycles
system.cpu.dcache.ReadReq_mshr_miss_rate::.cpu.data     0.005632                       # mshr miss rate for ReadReq accesses
system.cpu.dcache.ReadReq_mshr_miss_rate::total     0.005632                       # mshr miss rate for ReadReq accesses
system.cpu.dcache.ReadReq_avg_mshr_miss_latency::.cpu.data 74444.616201                       # average ReadReq mshr miss latency
system.cpu.dcache.ReadReq_avg_mshr_miss_latency::total 74444.616201                       # average ReadReq mshr miss latency
system.cpu.dcache.WriteReq_hits::.cpu.data      1381377                       # number of WriteReq hits
system.cpu.dcache.WriteReq_hits::total        1381377                       # number of WriteReq hits
system.cpu.dcache.WriteReq_misses::.cpu.data        74121                       # number of WriteReq misses
system.cpu.dcache.WriteReq_misses::total        74121                       # number of WriteReq misses
system.cpu.dcache.WriteReq_miss_latency::.cpu.data   6366515500                       # number of WriteReq miss cycles
system.cpu.dcache.WriteReq_miss_latency::total   6366515500                       # number of WriteReq miss cycles
system.cpu.dcache.WriteReq_accesses::.cpu.data      1455498                       # number of WriteReq accesses(hits+misses)
system.cpu.dcache.WriteReq_accesses::total      1455498                       # number of WriteReq accesses(hits+misses)
system.cpu.dcache.WriteReq_miss_rate::.cpu.data     0.050925                       # miss rate for WriteReq accesses
system.cpu.dcache.WriteReq_miss_rate::total     0.050925                       # miss rate for WriteReq accesses
system.cpu.dcache.WriteReq_avg_miss_latency::.cpu.data 85893.545689                       # average WriteReq miss latency
system.cpu.dcache.WriteReq_avg_miss_latency::total 85893.545689                       # average WriteReq miss latency
system.cpu.dcache.WriteReq_mshr_hits::.cpu.data        19735                       # number of WriteReq MSHR hits
system.cpu.dcache.WriteReq_mshr_hits::total        19735                       # number of WriteReq MSHR hits
system.cpu.dcache.WriteReq_mshr_misses::.cpu.data        54386                       # number of WriteReq MSHR misses
system.cpu.dcache.WriteReq_mshr_misses::total        54386                       # number of WriteReq MSHR misses
system.cpu.dcache.WriteReq_mshr_miss_latency::.cpu.data   4739738500                       # number of WriteReq MSHR miss cycles
system.cpu.dcache.WriteReq_mshr_miss_latency::total   4739738500                       # number of WriteReq MSHR miss cycles
system.cpu.dcache.WriteReq_mshr_miss_rate::.cpu.data     0.037366                       # mshr miss rate for WriteReq accesses
system.cpu.dcache.WriteReq_mshr_miss_rate::total     0.037366                       # mshr miss rate for WriteReq accesses
system.cpu.dcache.WriteReq_avg_mshr_miss_latency::.cpu.data 87149.974258                       # average WriteReq mshr miss latency
system.cpu.dcache.WriteReq_avg_mshr_miss_latency::total 87149.974258                       # average WriteReq mshr miss latency
system.cpu.dcache.SoftPFReq_hits::.cpu.data          133                       # number of SoftPFReq hits
system.cpu.dcache.SoftPFReq_hits::total           133                       # number of SoftPFReq hits
system.cpu.dcache.SoftPFReq_misses::.cpu.data         1480                       # number of SoftPFReq misses
system.cpu.dcache.SoftPFReq_misses::total         1480                       # number of SoftPFReq misses
system.cpu.dcache.SoftPFReq_accesses::.cpu.data         1613                       # number of SoftPFReq accesses(hits+misses)
system.cpu.dcache.SoftPFReq_accesses::total         1613                       # number of SoftPFReq accesses(hits+misses)
system.cpu.dcache.SoftPFReq_miss_rate::.cpu.data     0.917545                       # miss rate for SoftPFReq accesses
system.cpu.dcache.SoftPFReq_miss_rate::total     0.917545                       # miss rate for SoftPFReq accesses
system.cpu.dcache.SoftPFReq_mshr_misses::.cpu.data          763                       # number of SoftPFReq MSHR misses
system.cpu.dcache.SoftPFReq_mshr_misses::total          763                       # number of SoftPFReq MSHR misses
system.cpu.dcache.SoftPFReq_mshr_miss_latency::.cpu.data     78383000                       # number of SoftPFReq MSHR miss cycles
system.cpu.dcache.SoftPFReq_mshr_miss_latency::total     78383000                       # number of SoftPFReq MSHR miss cycles
system.cpu.dcache.SoftPFReq_mshr_miss_rate::.cpu.data     0.473032                       # mshr miss rate for SoftPFReq accesses
system.cpu.dcache.SoftPFReq_mshr_miss_rate::total     0.473032                       # mshr miss rate for SoftPFReq accesses
system.cpu.dcache.SoftPFReq_avg_mshr_miss_latency::.cpu.data 102730.013106                       # average SoftPFReq mshr miss latency
system.cpu.dcache.SoftPFReq_avg_mshr_miss_latency::total 102730.013106                       # average SoftPFReq mshr miss latency
system.cpu.dcache.LoadLockedReq_hits::.cpu.data           38                       # number of LoadLockedReq hits
system.cpu.dcache.LoadLockedReq_hits::total           38                       # number of LoadLockedReq hits
system.cpu.dcache.LoadLockedReq_accesses::.cpu.data           38                       # number of LoadLockedReq accesses(hits+misses)
system.cpu.dcache.LoadLockedReq_accesses::total           38                       # number of LoadLockedReq accesses(hits+misses)
system.cpu.dcache.StoreCondReq_hits::.cpu.data           38                       # number of StoreCondReq hits
system.cpu.dcache.StoreCondReq_hits::total           38                       # number of StoreCondReq hits
system.cpu.dcache.StoreCondReq_accesses::.cpu.data           38                       # number of StoreCondReq accesses(hits+misses)
system.cpu.dcache.StoreCondReq_accesses::total           38                       # number of StoreCondReq accesses(hits+misses)
system.cpu.dcache.tags.pwrStateResidencyTicks::UNDEFINED  13611499500                       # Cumulative time (in ticks) in various power states
system.cpu.dcache.tags.tagsinuse           238.205071                       # Cycle average of tags in use
system.cpu.dcache.tags.total_refs             7121653                       # Total number of references to valid blocks.
system.cpu.dcache.tags.sampled_refs             87171                       # Sample count of references to valid blocks.
system.cpu.dcache.tags.avg_refs             81.697503                       # Average number of references to valid blocks.
system.cpu.dcache.tags.warmup_cycle            186500                       # Cycle when the warmup percentage was hit.
system.cpu.dcache.tags.occ_blocks::.cpu.data   238.205071                       # Average occupied blocks per requestor
system.cpu.dcache.tags.occ_percent::.cpu.data     0.930489                       # Average percentage of cache occupancy
system.cpu.dcache.tags.occ_percent::total     0.930489                       # Average percentage of cache occupancy
system.cpu.dcache.tags.occ_task_id_blocks::1024          256                       # Occupied blocks per task id
system.cpu.dcache.tags.age_task_id_blocks_1024::0            1                       # Occupied blocks per task id
system.cpu.dcache.tags.age_task_id_blocks_1024::1           11                       # Occupied blocks per task id
system.cpu.dcache.tags.age_task_id_blocks_1024::2          176                       # Occupied blocks per task id
system.cpu.dcache.tags.age_task_id_blocks_1024::3           68                       # Occupied blocks per task id
system.cpu.dcache.tags.occ_task_id_percent::1024            1                       # Percentage of cache occupancy per task id
system.cpu.dcache.tags.tag_accesses           7230097                       # Number of tag accesses
system.cpu.dcache.tags.data_accesses          7230097                       # Number of data accesses
system.cpu.itb.walker.pwrStateResidencyTicks::UNDEFINED  13611499500                       # Cumulative time (in ticks) in various power states
system.cpu.itb.stage2_mmu.stage2_tlb.walker.pwrStateResidencyTicks::UNDEFINED  13611499500                       # Cumulative time (in ticks) in various power states

---------- End Simulation Statistics   ----------
