
---------- Begin Simulation Statistics ----------
final_tick                                  269583500                       # Number of ticks from beginning of simulation (restored from checkpoints and never reset)
host_inst_rate                                 182946                       # Simulator instruction rate (inst/s)
host_mem_usage                                 701920                       # Number of bytes of host memory used
host_op_rate                                   185145                       # Simulator op (including micro ops) rate (op/s)
host_seconds                                     0.55                       # Real time elapsed on the host
host_tick_rate                              493084369                       # Simulator tick rate (ticks/s)
sim_freq                                 1000000000000                       # Frequency of simulated ticks
sim_insts                                      100001                       # Number of instructions simulated
sim_ops                                        101221                       # Number of ops (including micro ops) simulated
sim_seconds                                  0.000270                       # Number of seconds simulated
sim_ticks                                   269583500                       # Number of ticks simulated
system.cpu.branchPred.BTBCorrect                    0                       # Number of correct BTB predictions (this stat may not work properly.
system.cpu.branchPred.BTBHitPct             76.175018                       # BTB Hit Percentage
system.cpu.branchPred.BTBHits                    5397                       # Number of BTB hits
system.cpu.branchPred.BTBLookups                 7085                       # Number of BTB lookups
system.cpu.branchPred.RASInCorrect                  4                       # Number of incorrect RAS predictions.
system.cpu.branchPred.condIncorrect               494                       # Number of conditional branches incorrect
system.cpu.branchPred.condPredicted              6650                       # Number of conditional branches predicted
system.cpu.branchPred.indirectHits                 20                       # Number of indirect target hits.
system.cpu.branchPred.indirectLookups             129                       # Number of indirect predictor lookups.
system.cpu.branchPred.indirectMisses              109                       # Number of indirect misses.
system.cpu.branchPred.lookups                    7656                       # Number of BP lookups
system.cpu.branchPred.usedRAS                     251                       # Number of times the RAS was used to get a target.
system.cpu.branchPredindirectMispredicted           55                       # Number of mispredicted indirect branches.
system.cpu.committedInsts                      100001                       # Number of instructions committed
system.cpu.committedOps                        101221                       # Number of ops (including micro ops) committed
system.cpu.cpi                               5.391616                       # CPI: cycles per instruction
system.cpu.discardedOps                          1623                       # Number of ops (including micro ops) which were discarded before commit
system.cpu.dtb.accesses                             0                       # DTB accesses
system.cpu.dtb.align_faults                         0                       # Number of TLB faults due to alignment restrictions
system.cpu.dtb.domain_faults                        0                       # Number of TLB faults due to domain restrictions
system.cpu.dtb.flush_entries                        0                       # Number of entries that have been flushed from TLB
system.cpu.dtb.flush_tlb                            0                       # Number of times complete TLB was flushed
system.cpu.dtb.flush_tlb_asid                       0                       # Number of times TLB was flushed by ASID
system.cpu.dtb.flush_tlb_mva                        0                       # Number of times TLB was flushed by MVA
system.cpu.dtb.flush_tlb_mva_asid                   0                       # Number of times TLB was flushed by MVA & ASID
system.cpu.dtb.hits                                 0                       # DTB hits
system.cpu.dtb.inst_accesses                        0                       # ITB inst accesses
system.cpu.dtb.inst_hits                            0                       # ITB inst hits
system.cpu.dtb.inst_misses                          0                       # ITB inst misses
system.cpu.dtb.misses                               0                       # DTB misses
system.cpu.dtb.perms_faults                         0                       # Number of TLB faults due to permissions restrictions
system.cpu.dtb.prefetch_faults                      0                       # Number of TLB faults due to prefetch
system.cpu.dtb.read_accesses                        0                       # DTB read accesses
system.cpu.dtb.read_hits                            0                       # DTB read hits
system.cpu.dtb.read_misses                          0                       # DTB read misses
system.cpu.dtb.stage2_mmu.stage2_tlb.accesses            0                       # DTB accesses
system.cpu.dtb.stage2_mmu.stage2_tlb.align_faults            0                       # Number of TLB faults due to alignment restrictions
system.cpu.dtb.stage2_mmu.stage2_tlb.domain_faults            0                       # Number of TLB faults due to domain restrictions
system.cpu.dtb.stage2_mmu.stage2_tlb.flush_entries            0                       # Number of entries that have been flushed from TLB
system.cpu.dtb.stage2_mmu.stage2_tlb.flush_tlb            0                       # Number of times complete TLB was flushed
system.cpu.dtb.stage2_mmu.stage2_tlb.flush_tlb_asid            0                       # Number of times TLB was flushed by ASID
system.cpu.dtb.stage2_mmu.stage2_tlb.flush_tlb_mva            0                       # Number of times TLB was flushed by MVA
system.cpu.dtb.stage2_mmu.stage2_tlb.flush_tlb_mva_asid            0                       # Number of times TLB was flushed by MVA & ASID
system.cpu.dtb.stage2_mmu.stage2_tlb.hits            0                       # DTB hits
system.cpu.dtb.stage2_mmu.stage2_tlb.inst_accesses            0                       # ITB inst accesses
system.cpu.dtb.stage2_mmu.stage2_tlb.inst_hits            0                       # ITB inst hits
system.cpu.dtb.stage2_mmu.stage2_tlb.inst_misses            0                       # ITB inst misses
system.cpu.dtb.stage2_mmu.stage2_tlb.misses            0                       # DTB misses
system.cpu.dtb.stage2_mmu.stage2_tlb.perms_faults            0                       # Number of TLB faults due to permissions restrictions
system.cpu.dtb.stage2_mmu.stage2_tlb.prefetch_faults            0                       # Number of TLB faults due to prefetch
system.cpu.dtb.stage2_mmu.stage2_tlb.read_accesses            0                       # DTB read accesses
system.cpu.dtb.stage2_mmu.stage2_tlb.read_hits            0                       # DTB read hits
system.cpu.dtb.stage2_mmu.stage2_tlb.read_misses            0                       # DTB read misses
system.cpu.dtb.stage2_mmu.stage2_tlb.walker.walkRequestOrigin_Requested::Data            0                       # Table walker requests started/completed, data/inst
system.cpu.dtb.stage2_mmu.stage2_tlb.walker.walkRequestOrigin_Requested::Inst            0                       # Table walker requests started/completed, data/inst
system.cpu.dtb.stage2_mmu.stage2_tlb.walker.walkRequestOrigin_Requested::total            0                       # Table walker requests started/completed, data/inst
system.cpu.dtb.stage2_mmu.stage2_tlb.walker.walkRequestOrigin_Completed::Data            0                       # Table walker requests started/completed, data/inst
system.cpu.dtb.stage2_mmu.stage2_tlb.walker.walkRequestOrigin_Completed::Inst            0                       # Table walker requests started/completed, data/inst
system.cpu.dtb.stage2_mmu.stage2_tlb.walker.walkRequestOrigin_Completed::total            0                       # Table walker requests started/completed, data/inst
system.cpu.dtb.stage2_mmu.stage2_tlb.walker.walkRequestOrigin::total            0                       # Table walker requests started/completed, data/inst
system.cpu.dtb.stage2_mmu.stage2_tlb.walker.walks            0                       # Table walker walks requested
system.cpu.dtb.stage2_mmu.stage2_tlb.write_accesses            0                       # DTB write accesses
system.cpu.dtb.stage2_mmu.stage2_tlb.write_hits            0                       # DTB write hits
system.cpu.dtb.stage2_mmu.stage2_tlb.write_misses            0                       # DTB write misses
system.cpu.dtb.walker.walkRequestOrigin_Requested::Data            0                       # Table walker requests started/completed, data/inst
system.cpu.dtb.walker.walkRequestOrigin_Requested::Inst            0                       # Table walker requests started/completed, data/inst
system.cpu.dtb.walker.walkRequestOrigin_Requested::total            0                       # Table walker requests started/completed, data/inst
system.cpu.dtb.walker.walkRequestOrigin_Completed::Data            0                       # Table walker requests started/completed, data/inst
system.cpu.dtb.walker.walkRequestOrigin_Completed::Inst            0                       # Table walker requests started/completed, data/inst
system.cpu.dtb.walker.walkRequestOrigin_Completed::total            0                       # Table walker requests started/completed, data/inst
system.cpu.dtb.walker.walkRequestOrigin::total            0                       # Table walker requests started/completed, data/inst
system.cpu.dtb.walker.walks                         0                       # Table walker walks requested
system.cpu.dtb.write_accesses                       0                       # DTB write accesses
system.cpu.dtb.write_hits                           0                       # DTB write hits
system.cpu.dtb.write_misses                         0                       # DTB write misses
system.cpu.fetch2.amo_instructions                  0                       # Number of memory atomic instructions successfully decoded
system.cpu.fetch2.fp_instructions                   0                       # Number of floating point instructions successfully decoded
system.cpu.fetch2.int_instructions              47470                       # Number of integer instructions successfully decoded
system.cpu.fetch2.load_instructions             40696                       # Number of memory load instructions successfully decoded
system.cpu.fetch2.store_instructions            10900                       # Number of memory store instructions successfully decoded
system.cpu.fetch2.vec_instructions                  0                       # Number of SIMD instructions successfully decoded
system.cpu.idleCycles                          407244                       # Total number of cycles that the object has spent stopped
system.cpu.ipc                               0.185473                       # IPC: instructions per cycle
system.cpu.itb.accesses                             0                       # DTB accesses
system.cpu.itb.align_faults                         0                       # Number of TLB faults due to alignment restrictions
system.cpu.itb.domain_faults                        0                       # Number of TLB faults due to domain restrictions
system.cpu.itb.flush_entries                        0                       # Number of entries that have been flushed from TLB
system.cpu.itb.flush_tlb                            0                       # Number of times complete TLB was flushed
system.cpu.itb.flush_tlb_asid                       0                       # Number of times TLB was flushed by ASID
system.cpu.itb.flush_tlb_mva                        0                       # Number of times TLB was flushed by MVA
system.cpu.itb.flush_tlb_mva_asid                   0                       # Number of times TLB was flushed by MVA & ASID
system.cpu.itb.hits                                 0                       # DTB hits
system.cpu.itb.inst_accesses                        0                       # ITB inst accesses
system.cpu.itb.inst_hits                            0                       # ITB inst hits
system.cpu.itb.inst_misses                          0                       # ITB inst misses
system.cpu.itb.misses                               0                       # DTB misses
system.cpu.itb.perms_faults                         0                       # Number of TLB faults due to permissions restrictions
system.cpu.itb.prefetch_faults                      0                       # Number of TLB faults due to prefetch
system.cpu.itb.read_accesses                        0                       # DTB read accesses
system.cpu.itb.read_hits                            0                       # DTB read hits
system.cpu.itb.read_misses                          0                       # DTB read misses
system.cpu.itb.stage2_mmu.stage2_tlb.accesses            0                       # DTB accesses
system.cpu.itb.stage2_mmu.stage2_tlb.align_faults            0                       # Number of TLB faults due to alignment restrictions
system.cpu.itb.stage2_mmu.stage2_tlb.domain_faults            0                       # Number of TLB faults due to domain restrictions
system.cpu.itb.stage2_mmu.stage2_tlb.flush_entries            0                       # Number of entries that have been flushed from TLB
system.cpu.itb.stage2_mmu.stage2_tlb.flush_tlb            0                       # Number of times complete TLB was flushed
system.cpu.itb.stage2_mmu.stage2_tlb.flush_tlb_asid            0                       # Number of times TLB was flushed by ASID
system.cpu.itb.stage2_mmu.stage2_tlb.flush_tlb_mva            0                       # Number of times TLB was flushed by MVA
system.cpu.itb.stage2_mmu.stage2_tlb.flush_tlb_mva_asid            0                       # Number of times TLB was flushed by MVA & ASID
system.cpu.itb.stage2_mmu.stage2_tlb.hits            0                       # DTB hits
system.cpu.itb.stage2_mmu.stage2_tlb.inst_accesses            0                       # ITB inst accesses
system.cpu.itb.stage2_mmu.stage2_tlb.inst_hits            0                       # ITB inst hits
system.cpu.itb.stage2_mmu.stage2_tlb.inst_misses            0                       # ITB inst misses
system.cpu.itb.stage2_mmu.stage2_tlb.misses            0                       # DTB misses
system.cpu.itb.stage2_mmu.stage2_tlb.perms_faults            0                       # Number of TLB faults due to permissions restrictions
system.cpu.itb.stage2_mmu.stage2_tlb.prefetch_faults            0                       # Number of TLB faults due to prefetch
system.cpu.itb.stage2_mmu.stage2_tlb.read_accesses            0                       # DTB read accesses
system.cpu.itb.stage2_mmu.stage2_tlb.read_hits            0                       # DTB read hits
system.cpu.itb.stage2_mmu.stage2_tlb.read_misses            0                       # DTB read misses
system.cpu.itb.stage2_mmu.stage2_tlb.walker.walkRequestOrigin_Requested::Data            0                       # Table walker requests started/completed, data/inst
system.cpu.itb.stage2_mmu.stage2_tlb.walker.walkRequestOrigin_Requested::Inst            0                       # Table walker requests started/completed, data/inst
system.cpu.itb.stage2_mmu.stage2_tlb.walker.walkRequestOrigin_Requested::total            0                       # Table walker requests started/completed, data/inst
system.cpu.itb.stage2_mmu.stage2_tlb.walker.walkRequestOrigin_Completed::Data            0                       # Table walker requests started/completed, data/inst
system.cpu.itb.stage2_mmu.stage2_tlb.walker.walkRequestOrigin_Completed::Inst            0                       # Table walker requests started/completed, data/inst
system.cpu.itb.stage2_mmu.stage2_tlb.walker.walkRequestOrigin_Completed::total            0                       # Table walker requests started/completed, data/inst
system.cpu.itb.stage2_mmu.stage2_tlb.walker.walkRequestOrigin::total            0                       # Table walker requests started/completed, data/inst
system.cpu.itb.stage2_mmu.stage2_tlb.walker.walks            0                       # Table walker walks requested
system.cpu.itb.stage2_mmu.stage2_tlb.write_accesses            0                       # DTB write accesses
system.cpu.itb.stage2_mmu.stage2_tlb.write_hits            0                       # DTB write hits
system.cpu.itb.stage2_mmu.stage2_tlb.write_misses            0                       # DTB write misses
system.cpu.itb.walker.walkRequestOrigin_Requested::Data            0                       # Table walker requests started/completed, data/inst
system.cpu.itb.walker.walkRequestOrigin_Requested::Inst            0                       # Table walker requests started/completed, data/inst
system.cpu.itb.walker.walkRequestOrigin_Requested::total            0                       # Table walker requests started/completed, data/inst
system.cpu.itb.walker.walkRequestOrigin_Completed::Data            0                       # Table walker requests started/completed, data/inst
system.cpu.itb.walker.walkRequestOrigin_Completed::Inst            0                       # Table walker requests started/completed, data/inst
system.cpu.itb.walker.walkRequestOrigin_Completed::total            0                       # Table walker requests started/completed, data/inst
system.cpu.itb.walker.walkRequestOrigin::total            0                       # Table walker requests started/completed, data/inst
system.cpu.itb.walker.walks                         0                       # Table walker walks requested
system.cpu.itb.write_accesses                       0                       # DTB write accesses
system.cpu.itb.write_hits                           0                       # DTB write hits
system.cpu.itb.write_misses                         0                       # DTB write misses
system.cpu.numCycles                           539167                       # number of cpu cycles simulated
system.cpu.numFetchSuspends                         0                       # Number of times Execute suspended instruction fetching
system.cpu.numWorkItemsCompleted                    0                       # number of work items this cpu completed
system.cpu.numWorkItemsStarted                      0                       # number of work items this cpu started
system.cpu.op_class_0::No_OpClass                   0      0.00%      0.00% # Class of committed instruction
system.cpu.op_class_0::IntAlu                   50032     49.43%     49.43% # Class of committed instruction
system.cpu.op_class_0::IntMult                     47      0.05%     49.47% # Class of committed instruction
system.cpu.op_class_0::IntDiv                       0      0.00%     49.47% # Class of committed instruction
system.cpu.op_class_0::FloatAdd                     0      0.00%     49.47% # Class of committed instruction
system.cpu.op_class_0::FloatCmp                     0      0.00%     49.47% # Class of committed instruction
system.cpu.op_class_0::FloatCvt                     0      0.00%     49.47% # Class of committed instruction
system.cpu.op_class_0::FloatMult                    0      0.00%     49.47% # Class of committed instruction
system.cpu.op_class_0::FloatMultAcc                 0      0.00%     49.47% # Class of committed instruction
system.cpu.op_class_0::FloatDiv                     0      0.00%     49.47% # Class of committed instruction
system.cpu.op_class_0::FloatMisc                    0      0.00%     49.47% # Class of committed instruction
system.cpu.op_class_0::FloatSqrt                    0      0.00%     49.47% # Class of committed instruction
system.cpu.op_class_0::SimdAdd                      0      0.00%     49.47% # Class of committed instruction
system.cpu.op_class_0::SimdAddAcc                   0      0.00%     49.47% # Class of committed instruction
system.cpu.op_class_0::SimdAlu                      0      0.00%     49.47% # Class of committed instruction
system.cpu.op_class_0::SimdCmp                      0      0.00%     49.47% # Class of committed instruction
system.cpu.op_class_0::SimdCvt                      0      0.00%     49.47% # Class of committed instruction
system.cpu.op_class_0::SimdMisc                     0      0.00%     49.47% # Class of committed instruction
system.cpu.op_class_0::SimdMult                     0      0.00%     49.47% # Class of committed instruction
system.cpu.op_class_0::SimdMultAcc                  0      0.00%     49.47% # Class of committed instruction
system.cpu.op_class_0::SimdShift                    0      0.00%     49.47% # Class of committed instruction
system.cpu.op_class_0::SimdShiftAcc                 0      0.00%     49.47% # Class of committed instruction
system.cpu.op_class_0::SimdDiv                      0      0.00%     49.47% # Class of committed instruction
system.cpu.op_class_0::SimdSqrt                     0      0.00%     49.47% # Class of committed instruction
system.cpu.op_class_0::SimdFloatAdd                 0      0.00%     49.47% # Class of committed instruction
system.cpu.op_class_0::SimdFloatAlu                 0      0.00%     49.47% # Class of committed instruction
system.cpu.op_class_0::SimdFloatCmp                 0      0.00%     49.47% # Class of committed instruction
system.cpu.op_class_0::SimdFloatCvt                 0      0.00%     49.47% # Class of committed instruction
system.cpu.op_class_0::SimdFloatDiv                 0      0.00%     49.47% # Class of committed instruction
system.cpu.op_class_0::SimdFloatMisc               17      0.02%     49.49% # Class of committed instruction
system.cpu.op_class_0::SimdFloatMult                0      0.00%     49.49% # Class of committed instruction
system.cpu.op_class_0::SimdFloatMultAcc             0      0.00%     49.49% # Class of committed instruction
system.cpu.op_class_0::SimdFloatSqrt                0      0.00%     49.49% # Class of committed instruction
system.cpu.op_class_0::SimdReduceAdd                0      0.00%     49.49% # Class of committed instruction
system.cpu.op_class_0::SimdReduceAlu                0      0.00%     49.49% # Class of committed instruction
system.cpu.op_class_0::SimdReduceCmp                0      0.00%     49.49% # Class of committed instruction
system.cpu.op_class_0::SimdFloatReduceAdd            0      0.00%     49.49% # Class of committed instruction
system.cpu.op_class_0::SimdFloatReduceCmp            0      0.00%     49.49% # Class of committed instruction
system.cpu.op_class_0::SimdAes                      0      0.00%     49.49% # Class of committed instruction
system.cpu.op_class_0::SimdAesMix                   0      0.00%     49.49% # Class of committed instruction
system.cpu.op_class_0::SimdSha1Hash                 0      0.00%     49.49% # Class of committed instruction
system.cpu.op_class_0::SimdSha1Hash2                0      0.00%     49.49% # Class of committed instruction
system.cpu.op_class_0::SimdSha256Hash               0      0.00%     49.49% # Class of committed instruction
system.cpu.op_class_0::SimdSha256Hash2              0      0.00%     49.49% # Class of committed instruction
system.cpu.op_class_0::SimdShaSigma2                0      0.00%     49.49% # Class of committed instruction
system.cpu.op_class_0::SimdShaSigma3                0      0.00%     49.49% # Class of committed instruction
system.cpu.op_class_0::SimdPredAlu                  0      0.00%     49.49% # Class of committed instruction
system.cpu.op_class_0::MemRead                  39972     39.49%     88.98% # Class of committed instruction
system.cpu.op_class_0::MemWrite                 11153     11.02%    100.00% # Class of committed instruction
system.cpu.op_class_0::FloatMemRead                 0      0.00%    100.00% # Class of committed instruction
system.cpu.op_class_0::FloatMemWrite                0      0.00%    100.00% # Class of committed instruction
system.cpu.op_class_0::IprAccess                    0      0.00%    100.00% # Class of committed instruction
system.cpu.op_class_0::InstPrefetch                 0      0.00%    100.00% # Class of committed instruction
system.cpu.op_class_0::total                   101221                       # Class of committed instruction
system.cpu.tickCycles                          131923                       # Number of cycles that the object actually ticked
system.cpu.workload.numSyscalls                    10                       # Number of system calls
system.membus.snoop_filter.hit_multi_requests            0                       # Number of requests hitting in the snoop filter with multiple (>1) holders of the requested data.
system.membus.snoop_filter.hit_multi_snoops            0                       # Number of snoops hitting in the snoop filter with multiple (>1) holders of the requested data.
system.membus.snoop_filter.hit_single_requests          747                       # Number of requests hitting in the snoop filter with a single holder of the requested data.
system.membus.snoop_filter.hit_single_snoops            0                       # Number of snoops hitting in the snoop filter with a single holder of the requested data.
system.membus.snoop_filter.tot_requests          5893                       # Total number of requests made to the snoop filter.
system.membus.snoop_filter.tot_snoops               0                       # Total number of snoops made to the snoop filter.
system.tol2bus.snoop_filter.hit_multi_requests            7                       # Number of requests hitting in the snoop filter with multiple (>1) holders of the requested data.
system.tol2bus.snoop_filter.hit_multi_snoops            0                       # Number of snoops hitting in the snoop filter with multiple (>1) holders of the requested data.
system.tol2bus.snoop_filter.hit_single_requests         4644                       # Number of requests hitting in the snoop filter with a single holder of the requested data.
system.tol2bus.snoop_filter.hit_single_snoops           25                       # Number of snoops hitting in the snoop filter with a single holder of the requested data.
system.tol2bus.snoop_filter.tot_requests         9806                       # Total number of requests made to the snoop filter.
system.tol2bus.snoop_filter.tot_snoops             25                       # Total number of snoops made to the snoop filter.
system.membus.pwrStateResidencyTicks::UNDEFINED    269583500                       # Cumulative time (in ticks) in various power states
system.membus.trans_dist::ReadResp                279                       # Transaction distribution
system.membus.trans_dist::WritebackDirty          740                       # Transaction distribution
system.membus.trans_dist::CleanEvict                7                       # Transaction distribution
system.membus.trans_dist::ReadExReq              4867                       # Transaction distribution
system.membus.trans_dist::ReadExResp             4867                       # Transaction distribution
system.membus.trans_dist::ReadSharedReq           279                       # Transaction distribution
system.membus.pkt_count_system.l2.mem_side::system.mem_ctrls.port        11039                       # Packet count per connected master and slave (bytes)
system.membus.pkt_count::total                  11039                       # Packet count per connected master and slave (bytes)
system.membus.pkt_size_system.l2.mem_side::system.mem_ctrls.port       753408                       # Cumulative packet size per connected master and slave (bytes)
system.membus.pkt_size::total                  753408                       # Cumulative packet size per connected master and slave (bytes)
system.membus.snoops                                0                       # Total snoops (count)
system.membus.snoopTraffic                          0                       # Total snoop traffic (bytes)
system.membus.snoop_fanout::samples              5146                       # Request fanout histogram
system.membus.snoop_fanout::mean                    0                       # Request fanout histogram
system.membus.snoop_fanout::stdev                   0                       # Request fanout histogram
system.membus.snoop_fanout::underflows              0      0.00%      0.00% # Request fanout histogram
system.membus.snoop_fanout::0                    5146    100.00%    100.00% # Request fanout histogram
system.membus.snoop_fanout::1                       0      0.00%    100.00% # Request fanout histogram
system.membus.snoop_fanout::overflows               0      0.00%    100.00% # Request fanout histogram
system.membus.snoop_fanout::min_value               0                       # Request fanout histogram
system.membus.snoop_fanout::max_value               0                       # Request fanout histogram
system.membus.snoop_fanout::total                5146                       # Request fanout histogram
system.membus.respLayer1.occupancy           47683500                       # Layer occupancy (ticks)
system.membus.respLayer1.utilization             17.7                       # Layer utilization (%)
system.membus.reqLayer0.occupancy            13185500                       # Layer occupancy (ticks)
system.membus.reqLayer0.utilization               4.9                       # Layer utilization (%)
system.tol2bus.pwrStateResidencyTicks::UNDEFINED    269583500                       # Cumulative time (in ticks) in various power states
system.tol2bus.trans_dist::ReadResp               308                       # Transaction distribution
system.tol2bus.trans_dist::WritebackDirty         5321                       # Transaction distribution
system.tol2bus.trans_dist::WritebackClean           41                       # Transaction distribution
system.tol2bus.trans_dist::CleanEvict              39                       # Transaction distribution
system.tol2bus.trans_dist::ReadExReq             4869                       # Transaction distribution
system.tol2bus.trans_dist::ReadExResp            4868                       # Transaction distribution
system.tol2bus.trans_dist::ReadCleanReq           235                       # Transaction distribution
system.tol2bus.trans_dist::ReadSharedReq           73                       # Transaction distribution
system.tol2bus.pkt_count_system.cpu.icache.mem_side::system.l2.cpu_side          511                       # Packet count per connected master and slave (bytes)
system.tol2bus.pkt_count_system.cpu.dcache.mem_side::system.l2.cpu_side        14471                       # Packet count per connected master and slave (bytes)
system.tol2bus.pkt_count::total                 14982                       # Packet count per connected master and slave (bytes)
system.tol2bus.pkt_size_system.cpu.icache.mem_side::system.l2.cpu_side        35328                       # Cumulative packet size per connected master and slave (bytes)
system.tol2bus.pkt_size_system.cpu.dcache.mem_side::system.l2.cpu_side      1218816                       # Cumulative packet size per connected master and slave (bytes)
system.tol2bus.pkt_size::total                1254144                       # Cumulative packet size per connected master and slave (bytes)
system.tol2bus.snoops                             772                       # Total snoops (count)
system.tol2bus.snoopTraffic                     94720                       # Total snoop traffic (bytes)
system.tol2bus.snoop_fanout::samples             5949                       # Request fanout histogram
system.tol2bus.snoop_fanout::mean            0.007900                       # Request fanout histogram
system.tol2bus.snoop_fanout::stdev           0.088540                       # Request fanout histogram
system.tol2bus.snoop_fanout::underflows             0      0.00%      0.00% # Request fanout histogram
system.tol2bus.snoop_fanout::0                   5902     99.21%     99.21% # Request fanout histogram
system.tol2bus.snoop_fanout::1                     47      0.79%    100.00% # Request fanout histogram
system.tol2bus.snoop_fanout::2                      0      0.00%    100.00% # Request fanout histogram
system.tol2bus.snoop_fanout::overflows              0      0.00%    100.00% # Request fanout histogram
system.tol2bus.snoop_fanout::min_value              0                       # Request fanout histogram
system.tol2bus.snoop_fanout::max_value              1                       # Request fanout histogram
system.tol2bus.snoop_fanout::total               5949                       # Request fanout histogram
system.tol2bus.reqLayer0.occupancy           14147000                       # Layer occupancy (ticks)
system.tol2bus.reqLayer0.utilization              5.2                       # Layer utilization (%)
system.tol2bus.respLayer1.occupancy          12353997                       # Layer occupancy (ticks)
system.tol2bus.respLayer1.utilization             4.6                       # Layer utilization (%)
system.tol2bus.respLayer0.occupancy            587500                       # Layer occupancy (ticks)
system.tol2bus.respLayer0.utilization             0.2                       # Layer utilization (%)
system.voltage_domain.voltage                       1                       # Voltage in Volts
system.clk_domain.clock                          1000                       # Clock period in ticks
system.l2.pwrStateResidencyTicks::UNDEFINED    269583500                       # Cumulative time (in ticks) in various power states
system.l2.demand_hits::.cpu.inst                   14                       # number of demand (read+write) hits
system.l2.demand_hits::.cpu.data                   13                       # number of demand (read+write) hits
system.l2.demand_hits::total                       27                       # number of demand (read+write) hits
system.l2.overall_hits::.cpu.inst                  14                       # number of overall hits
system.l2.overall_hits::.cpu.data                  13                       # number of overall hits
system.l2.overall_hits::total                      27                       # number of overall hits
system.l2.demand_misses::.cpu.inst                221                       # number of demand (read+write) misses
system.l2.demand_misses::.cpu.data               4929                       # number of demand (read+write) misses
system.l2.demand_misses::total                   5150                       # number of demand (read+write) misses
system.l2.overall_misses::.cpu.inst               221                       # number of overall misses
system.l2.overall_misses::.cpu.data              4929                       # number of overall misses
system.l2.overall_misses::total                  5150                       # number of overall misses
system.l2.demand_miss_latency::.cpu.inst     18608500                       # number of demand (read+write) miss cycles
system.l2.demand_miss_latency::.cpu.data    413843000                       # number of demand (read+write) miss cycles
system.l2.demand_miss_latency::total        432451500                       # number of demand (read+write) miss cycles
system.l2.overall_miss_latency::.cpu.inst     18608500                       # number of overall miss cycles
system.l2.overall_miss_latency::.cpu.data    413843000                       # number of overall miss cycles
system.l2.overall_miss_latency::total       432451500                       # number of overall miss cycles
system.l2.demand_accesses::.cpu.inst              235                       # number of demand (read+write) accesses
system.l2.demand_accesses::.cpu.data             4942                       # number of demand (read+write) accesses
system.l2.demand_accesses::total                 5177                       # number of demand (read+write) accesses
system.l2.overall_accesses::.cpu.inst             235                       # number of overall (read+write) accesses
system.l2.overall_accesses::.cpu.data            4942                       # number of overall (read+write) accesses
system.l2.overall_accesses::total                5177                       # number of overall (read+write) accesses
system.l2.demand_miss_rate::.cpu.inst        0.940426                       # miss rate for demand accesses
system.l2.demand_miss_rate::.cpu.data        0.997369                       # miss rate for demand accesses
system.l2.demand_miss_rate::total            0.994785                       # miss rate for demand accesses
system.l2.overall_miss_rate::.cpu.inst       0.940426                       # miss rate for overall accesses
system.l2.overall_miss_rate::.cpu.data       0.997369                       # miss rate for overall accesses
system.l2.overall_miss_rate::total           0.994785                       # miss rate for overall accesses
system.l2.demand_avg_miss_latency::.cpu.inst 84201.357466                       # average overall miss latency
system.l2.demand_avg_miss_latency::.cpu.data 83960.843985                       # average overall miss latency
system.l2.demand_avg_miss_latency::total 83971.165049                       # average overall miss latency
system.l2.overall_avg_miss_latency::.cpu.inst 84201.357466                       # average overall miss latency
system.l2.overall_avg_miss_latency::.cpu.data 83960.843985                       # average overall miss latency
system.l2.overall_avg_miss_latency::total 83971.165049                       # average overall miss latency
system.l2.blocked_cycles::no_mshrs                  0                       # number of cycles access was blocked
system.l2.blocked_cycles::no_targets                0                       # number of cycles access was blocked
system.l2.blocked::no_mshrs                         0                       # number of cycles access was blocked
system.l2.blocked::no_targets                       0                       # number of cycles access was blocked
system.l2.avg_blocked_cycles::no_mshrs            nan                       # average number of cycles each access was blocked
system.l2.avg_blocked_cycles::no_targets          nan                       # average number of cycles each access was blocked
system.l2.writebacks::.writebacks                 740                       # number of writebacks
system.l2.writebacks::total                       740                       # number of writebacks
system.l2.demand_mshr_hits::.cpu.data               3                       # number of demand (read+write) MSHR hits
system.l2.demand_mshr_hits::total                   3                       # number of demand (read+write) MSHR hits
system.l2.overall_mshr_hits::.cpu.data              3                       # number of overall MSHR hits
system.l2.overall_mshr_hits::total                  3                       # number of overall MSHR hits
system.l2.demand_mshr_misses::.cpu.inst           221                       # number of demand (read+write) MSHR misses
system.l2.demand_mshr_misses::.cpu.data          4926                       # number of demand (read+write) MSHR misses
system.l2.demand_mshr_misses::total              5147                       # number of demand (read+write) MSHR misses
system.l2.overall_mshr_misses::.cpu.inst          221                       # number of overall MSHR misses
system.l2.overall_mshr_misses::.cpu.data         4926                       # number of overall MSHR misses
system.l2.overall_mshr_misses::total             5147                       # number of overall MSHR misses
system.l2.demand_mshr_miss_latency::.cpu.inst     16398500                       # number of demand (read+write) MSHR miss cycles
system.l2.demand_mshr_miss_latency::.cpu.data    364386500                       # number of demand (read+write) MSHR miss cycles
system.l2.demand_mshr_miss_latency::total    380785000                       # number of demand (read+write) MSHR miss cycles
system.l2.overall_mshr_miss_latency::.cpu.inst     16398500                       # number of overall MSHR miss cycles
system.l2.overall_mshr_miss_latency::.cpu.data    364386500                       # number of overall MSHR miss cycles
system.l2.overall_mshr_miss_latency::total    380785000                       # number of overall MSHR miss cycles
system.l2.demand_mshr_miss_rate::.cpu.inst     0.940426                       # mshr miss rate for demand accesses
system.l2.demand_mshr_miss_rate::.cpu.data     0.996762                       # mshr miss rate for demand accesses
system.l2.demand_mshr_miss_rate::total       0.994205                       # mshr miss rate for demand accesses
system.l2.overall_mshr_miss_rate::.cpu.inst     0.940426                       # mshr miss rate for overall accesses
system.l2.overall_mshr_miss_rate::.cpu.data     0.996762                       # mshr miss rate for overall accesses
system.l2.overall_mshr_miss_rate::total      0.994205                       # mshr miss rate for overall accesses
system.l2.demand_avg_mshr_miss_latency::.cpu.inst 74201.357466                       # average overall mshr miss latency
system.l2.demand_avg_mshr_miss_latency::.cpu.data 73972.086886                       # average overall mshr miss latency
system.l2.demand_avg_mshr_miss_latency::total 73981.931222                       # average overall mshr miss latency
system.l2.overall_avg_mshr_miss_latency::.cpu.inst 74201.357466                       # average overall mshr miss latency
system.l2.overall_avg_mshr_miss_latency::.cpu.data 73972.086886                       # average overall mshr miss latency
system.l2.overall_avg_mshr_miss_latency::total 73981.931222                       # average overall mshr miss latency
system.l2.replacements                            772                       # number of replacements
system.l2.WritebackDirty_hits::.writebacks         4581                       # number of WritebackDirty hits
system.l2.WritebackDirty_hits::total             4581                       # number of WritebackDirty hits
system.l2.WritebackDirty_accesses::.writebacks         4581                       # number of WritebackDirty accesses(hits+misses)
system.l2.WritebackDirty_accesses::total         4581                       # number of WritebackDirty accesses(hits+misses)
system.l2.WritebackClean_hits::.writebacks           35                       # number of WritebackClean hits
system.l2.WritebackClean_hits::total               35                       # number of WritebackClean hits
system.l2.WritebackClean_accesses::.writebacks           35                       # number of WritebackClean accesses(hits+misses)
system.l2.WritebackClean_accesses::total           35                       # number of WritebackClean accesses(hits+misses)
system.l2.ReadExReq_hits::.cpu.data                 1                       # number of ReadExReq hits
system.l2.ReadExReq_hits::total                     1                       # number of ReadExReq hits
system.l2.ReadExReq_misses::.cpu.data            4868                       # number of ReadExReq misses
system.l2.ReadExReq_misses::total                4868                       # number of ReadExReq misses
system.l2.ReadExReq_miss_latency::.cpu.data    408368000                       # number of ReadExReq miss cycles
system.l2.ReadExReq_miss_latency::total     408368000                       # number of ReadExReq miss cycles
system.l2.ReadExReq_accesses::.cpu.data          4869                       # number of ReadExReq accesses(hits+misses)
system.l2.ReadExReq_accesses::total              4869                       # number of ReadExReq accesses(hits+misses)
system.l2.ReadExReq_miss_rate::.cpu.data     0.999795                       # miss rate for ReadExReq accesses
system.l2.ReadExReq_miss_rate::total         0.999795                       # miss rate for ReadExReq accesses
system.l2.ReadExReq_avg_miss_latency::.cpu.data 83888.249795                       # average ReadExReq miss latency
system.l2.ReadExReq_avg_miss_latency::total 83888.249795                       # average ReadExReq miss latency
system.l2.ReadExReq_mshr_misses::.cpu.data         4868                       # number of ReadExReq MSHR misses
system.l2.ReadExReq_mshr_misses::total           4868                       # number of ReadExReq MSHR misses
system.l2.ReadExReq_mshr_miss_latency::.cpu.data    359698000                       # number of ReadExReq MSHR miss cycles
system.l2.ReadExReq_mshr_miss_latency::total    359698000                       # number of ReadExReq MSHR miss cycles
system.l2.ReadExReq_mshr_miss_rate::.cpu.data     0.999795                       # mshr miss rate for ReadExReq accesses
system.l2.ReadExReq_mshr_miss_rate::total     0.999795                       # mshr miss rate for ReadExReq accesses
system.l2.ReadExReq_avg_mshr_miss_latency::.cpu.data 73890.304026                       # average ReadExReq mshr miss latency
system.l2.ReadExReq_avg_mshr_miss_latency::total 73890.304026                       # average ReadExReq mshr miss latency
system.l2.ReadCleanReq_hits::.cpu.inst             14                       # number of ReadCleanReq hits
system.l2.ReadCleanReq_hits::total                 14                       # number of ReadCleanReq hits
system.l2.ReadCleanReq_misses::.cpu.inst          221                       # number of ReadCleanReq misses
system.l2.ReadCleanReq_misses::total              221                       # number of ReadCleanReq misses
system.l2.ReadCleanReq_miss_latency::.cpu.inst     18608500                       # number of ReadCleanReq miss cycles
system.l2.ReadCleanReq_miss_latency::total     18608500                       # number of ReadCleanReq miss cycles
system.l2.ReadCleanReq_accesses::.cpu.inst          235                       # number of ReadCleanReq accesses(hits+misses)
system.l2.ReadCleanReq_accesses::total            235                       # number of ReadCleanReq accesses(hits+misses)
system.l2.ReadCleanReq_miss_rate::.cpu.inst     0.940426                       # miss rate for ReadCleanReq accesses
system.l2.ReadCleanReq_miss_rate::total      0.940426                       # miss rate for ReadCleanReq accesses
system.l2.ReadCleanReq_avg_miss_latency::.cpu.inst 84201.357466                       # average ReadCleanReq miss latency
system.l2.ReadCleanReq_avg_miss_latency::total 84201.357466                       # average ReadCleanReq miss latency
system.l2.ReadCleanReq_mshr_misses::.cpu.inst          221                       # number of ReadCleanReq MSHR misses
system.l2.ReadCleanReq_mshr_misses::total          221                       # number of ReadCleanReq MSHR misses
system.l2.ReadCleanReq_mshr_miss_latency::.cpu.inst     16398500                       # number of ReadCleanReq MSHR miss cycles
system.l2.ReadCleanReq_mshr_miss_latency::total     16398500                       # number of ReadCleanReq MSHR miss cycles
system.l2.ReadCleanReq_mshr_miss_rate::.cpu.inst     0.940426                       # mshr miss rate for ReadCleanReq accesses
system.l2.ReadCleanReq_mshr_miss_rate::total     0.940426                       # mshr miss rate for ReadCleanReq accesses
system.l2.ReadCleanReq_avg_mshr_miss_latency::.cpu.inst 74201.357466                       # average ReadCleanReq mshr miss latency
system.l2.ReadCleanReq_avg_mshr_miss_latency::total 74201.357466                       # average ReadCleanReq mshr miss latency
system.l2.ReadSharedReq_hits::.cpu.data            12                       # number of ReadSharedReq hits
system.l2.ReadSharedReq_hits::total                12                       # number of ReadSharedReq hits
system.l2.ReadSharedReq_misses::.cpu.data           61                       # number of ReadSharedReq misses
system.l2.ReadSharedReq_misses::total              61                       # number of ReadSharedReq misses
system.l2.ReadSharedReq_miss_latency::.cpu.data      5475000                       # number of ReadSharedReq miss cycles
system.l2.ReadSharedReq_miss_latency::total      5475000                       # number of ReadSharedReq miss cycles
system.l2.ReadSharedReq_accesses::.cpu.data           73                       # number of ReadSharedReq accesses(hits+misses)
system.l2.ReadSharedReq_accesses::total            73                       # number of ReadSharedReq accesses(hits+misses)
system.l2.ReadSharedReq_miss_rate::.cpu.data     0.835616                       # miss rate for ReadSharedReq accesses
system.l2.ReadSharedReq_miss_rate::total     0.835616                       # miss rate for ReadSharedReq accesses
system.l2.ReadSharedReq_avg_miss_latency::.cpu.data 89754.098361                       # average ReadSharedReq miss latency
system.l2.ReadSharedReq_avg_miss_latency::total 89754.098361                       # average ReadSharedReq miss latency
system.l2.ReadSharedReq_mshr_hits::.cpu.data            3                       # number of ReadSharedReq MSHR hits
system.l2.ReadSharedReq_mshr_hits::total            3                       # number of ReadSharedReq MSHR hits
system.l2.ReadSharedReq_mshr_misses::.cpu.data           58                       # number of ReadSharedReq MSHR misses
system.l2.ReadSharedReq_mshr_misses::total           58                       # number of ReadSharedReq MSHR misses
system.l2.ReadSharedReq_mshr_miss_latency::.cpu.data      4688500                       # number of ReadSharedReq MSHR miss cycles
system.l2.ReadSharedReq_mshr_miss_latency::total      4688500                       # number of ReadSharedReq MSHR miss cycles
system.l2.ReadSharedReq_mshr_miss_rate::.cpu.data     0.794521                       # mshr miss rate for ReadSharedReq accesses
system.l2.ReadSharedReq_mshr_miss_rate::total     0.794521                       # mshr miss rate for ReadSharedReq accesses
system.l2.ReadSharedReq_avg_mshr_miss_latency::.cpu.data 80836.206897                       # average ReadSharedReq mshr miss latency
system.l2.ReadSharedReq_avg_mshr_miss_latency::total 80836.206897                       # average ReadSharedReq mshr miss latency
system.l2.tags.pwrStateResidencyTicks::UNDEFINED    269583500                       # Cumulative time (in ticks) in various power states
system.l2.tags.tagsinuse                  2433.213557                       # Cycle average of tags in use
system.l2.tags.total_refs                        9795                       # Total number of references to valid blocks.
system.l2.tags.sampled_refs                      5146                       # Sample count of references to valid blocks.
system.l2.tags.avg_refs                      1.903420                       # Average number of references to valid blocks.
system.l2.tags.warmup_cycle                     82000                       # Cycle when the warmup percentage was hit.
system.l2.tags.occ_blocks::.cpu.inst       202.758817                       # Average occupied blocks per requestor
system.l2.tags.occ_blocks::.cpu.data      2230.454740                       # Average occupied blocks per requestor
system.l2.tags.occ_percent::.cpu.inst        0.006188                       # Average percentage of cache occupancy
system.l2.tags.occ_percent::.cpu.data        0.068068                       # Average percentage of cache occupancy
system.l2.tags.occ_percent::total            0.074256                       # Average percentage of cache occupancy
system.l2.tags.occ_task_id_blocks::1024          4374                       # Occupied blocks per task id
system.l2.tags.age_task_id_blocks_1024::0          172                       # Occupied blocks per task id
system.l2.tags.age_task_id_blocks_1024::1         1760                       # Occupied blocks per task id
system.l2.tags.age_task_id_blocks_1024::2         2442                       # Occupied blocks per task id
system.l2.tags.occ_task_id_percent::1024     0.133484                       # Percentage of cache occupancy per task id
system.l2.tags.tag_accesses                     44342                       # Number of tag accesses
system.l2.tags.data_accesses                    44342                       # Number of data accesses
system.cpu_voltage_domain.voltage                   1                       # Voltage in Volts
system.mem_ctrls.pwrStateResidencyTicks::UNDEFINED    269583500                       # Cumulative time (in ticks) in various power states
system.mem_ctrls.bytes_read::.cpu.inst          28288                       # Number of bytes read from this memory
system.mem_ctrls.bytes_read::.cpu.data         630400                       # Number of bytes read from this memory
system.mem_ctrls.bytes_read::total             658688                       # Number of bytes read from this memory
system.mem_ctrls.bytes_inst_read::.cpu.inst        28288                       # Number of instructions bytes read from this memory
system.mem_ctrls.bytes_inst_read::total         28288                       # Number of instructions bytes read from this memory
system.mem_ctrls.bytes_written::.writebacks        94720                       # Number of bytes written to this memory
system.mem_ctrls.bytes_written::total           94720                       # Number of bytes written to this memory
system.mem_ctrls.num_reads::.cpu.inst             221                       # Number of read requests responded to by this memory
system.mem_ctrls.num_reads::.cpu.data            4925                       # Number of read requests responded to by this memory
system.mem_ctrls.num_reads::total                5146                       # Number of read requests responded to by this memory
system.mem_ctrls.num_writes::.writebacks          740                       # Number of write requests responded to by this memory
system.mem_ctrls.num_writes::total                740                       # Number of write requests responded to by this memory
system.mem_ctrls.bw_read::.cpu.inst         104932238                       # Total read bandwidth from this memory (bytes/s)
system.mem_ctrls.bw_read::.cpu.data        2338422047                       # Total read bandwidth from this memory (bytes/s)
system.mem_ctrls.bw_read::total            2443354285                       # Total read bandwidth from this memory (bytes/s)
system.mem_ctrls.bw_inst_read::.cpu.inst    104932238                       # Instruction read bandwidth from this memory (bytes/s)
system.mem_ctrls.bw_inst_read::total        104932238                       # Instruction read bandwidth from this memory (bytes/s)
system.mem_ctrls.bw_write::.writebacks      351356815                       # Write bandwidth from this memory (bytes/s)
system.mem_ctrls.bw_write::total            351356815                       # Write bandwidth from this memory (bytes/s)
system.mem_ctrls.bw_total::.writebacks      351356815                       # Total bandwidth to/from this memory (bytes/s)
system.mem_ctrls.bw_total::.cpu.inst        104932238                       # Total bandwidth to/from this memory (bytes/s)
system.mem_ctrls.bw_total::.cpu.data       2338422047                       # Total bandwidth to/from this memory (bytes/s)
system.mem_ctrls.bw_total::total           2794711101                       # Total bandwidth to/from this memory (bytes/s)
system.mem_ctrls.avgPriority_.writebacks::samples      1480.00                       # Average QoS priority value for accepted requests
system.mem_ctrls.avgPriority_.cpu.inst::samples       442.00                       # Average QoS priority value for accepted requests
system.mem_ctrls.avgPriority_.cpu.data::samples      9850.00                       # Average QoS priority value for accepted requests
system.mem_ctrls.priorityMinLatency      0.000000018750                       # per QoS priority minimum request to response latency (s)
system.mem_ctrls.priorityMaxLatency      0.000016798750                       # per QoS priority maximum request to response latency (s)
system.mem_ctrls.numReadWriteTurnArounds           90                       # Number of turnarounds from READ to WRITE
system.mem_ctrls.numWriteReadTurnArounds           91                       # Number of turnarounds from WRITE to READ
system.mem_ctrls.numStayReadState               15969                       # Number of times bus staying in READ state
system.mem_ctrls.numStayWriteState               1361                       # Number of times bus staying in WRITE state
system.mem_ctrls.readReqs                        5146                       # Number of read requests accepted
system.mem_ctrls.writeReqs                        740                       # Number of write requests accepted
system.mem_ctrls.readBursts                     10292                       # Number of DRAM read bursts, including those serviced by the write queue
system.mem_ctrls.writeBursts                     1480                       # Number of DRAM write bursts, including those merged in the write queue
system.mem_ctrls.servicedByWrQ                      0                       # Number of DRAM read bursts serviced by the write queue
system.mem_ctrls.mergedWrBursts                     0                       # Number of DRAM write bursts merged with an existing one
system.mem_ctrls.neitherReadNorWriteReqs            0                       # Number of requests that are neither read nor write
system.mem_ctrls.perBankRdBursts::0               730                       # Per bank write bursts
system.mem_ctrls.perBankRdBursts::1               662                       # Per bank write bursts
system.mem_ctrls.perBankRdBursts::2               674                       # Per bank write bursts
system.mem_ctrls.perBankRdBursts::3               624                       # Per bank write bursts
system.mem_ctrls.perBankRdBursts::4               682                       # Per bank write bursts
system.mem_ctrls.perBankRdBursts::5               624                       # Per bank write bursts
system.mem_ctrls.perBankRdBursts::6               608                       # Per bank write bursts
system.mem_ctrls.perBankRdBursts::7               626                       # Per bank write bursts
system.mem_ctrls.perBankRdBursts::8               644                       # Per bank write bursts
system.mem_ctrls.perBankRdBursts::9               614                       # Per bank write bursts
system.mem_ctrls.perBankRdBursts::10              646                       # Per bank write bursts
system.mem_ctrls.perBankRdBursts::11              608                       # Per bank write bursts
system.mem_ctrls.perBankRdBursts::12              608                       # Per bank write bursts
system.mem_ctrls.perBankRdBursts::13              634                       # Per bank write bursts
system.mem_ctrls.perBankRdBursts::14              654                       # Per bank write bursts
system.mem_ctrls.perBankRdBursts::15              654                       # Per bank write bursts
system.mem_ctrls.perBankWrBursts::0                96                       # Per bank write bursts
system.mem_ctrls.perBankWrBursts::1                86                       # Per bank write bursts
system.mem_ctrls.perBankWrBursts::2                86                       # Per bank write bursts
system.mem_ctrls.perBankWrBursts::3                82                       # Per bank write bursts
system.mem_ctrls.perBankWrBursts::4                82                       # Per bank write bursts
system.mem_ctrls.perBankWrBursts::5                80                       # Per bank write bursts
system.mem_ctrls.perBankWrBursts::6                90                       # Per bank write bursts
system.mem_ctrls.perBankWrBursts::7                96                       # Per bank write bursts
system.mem_ctrls.perBankWrBursts::8                81                       # Per bank write bursts
system.mem_ctrls.perBankWrBursts::9                96                       # Per bank write bursts
system.mem_ctrls.perBankWrBursts::10               96                       # Per bank write bursts
system.mem_ctrls.perBankWrBursts::11               96                       # Per bank write bursts
system.mem_ctrls.perBankWrBursts::12               96                       # Per bank write bursts
system.mem_ctrls.perBankWrBursts::13               96                       # Per bank write bursts
system.mem_ctrls.perBankWrBursts::14               96                       # Per bank write bursts
system.mem_ctrls.perBankWrBursts::15               96                       # Per bank write bursts
system.mem_ctrls.avgRdQLen                       3.50                       # Average read queue length when enqueuing
system.mem_ctrls.avgWrQLen                       4.61                       # Average write queue length when enqueuing
system.mem_ctrls.totQLat                    120518000                       # Total ticks spent queuing
system.mem_ctrls.totBusLat                   51460000                       # Total ticks spent in databus transfers
system.mem_ctrls.totMemAccLat               313493000                       # Total ticks spent from burst creation until serviced by the DRAM
system.mem_ctrls.avgQLat                     11709.87                       # Average queueing delay per DRAM burst
system.mem_ctrls.avgBusLat                    5000.00                       # Average bus latency per DRAM burst
system.mem_ctrls.avgMemAccLat                30459.87                       # Average memory access latency per DRAM burst
system.mem_ctrls.numRdRetry                         0                       # Number of times read queue was full causing retry
system.mem_ctrls.numWrRetry                         0                       # Number of times write queue was full causing retry
system.mem_ctrls.readRowHits                     9557                       # Number of row buffer hits during reads
system.mem_ctrls.writeRowHits                    1351                       # Number of row buffer hits during writes
system.mem_ctrls.readRowHitRate                 92.86                       # Row buffer hit rate for reads
system.mem_ctrls.writeRowHitRate                91.28                       # Row buffer hit rate for writes
system.mem_ctrls.readPktSize::0                     0                       # Read request sizes (log2)
system.mem_ctrls.readPktSize::1                     0                       # Read request sizes (log2)
system.mem_ctrls.readPktSize::2                     0                       # Read request sizes (log2)
system.mem_ctrls.readPktSize::3                     0                       # Read request sizes (log2)
system.mem_ctrls.readPktSize::4                     0                       # Read request sizes (log2)
system.mem_ctrls.readPktSize::5                     0                       # Read request sizes (log2)
system.mem_ctrls.readPktSize::6                 10292                       # Read request sizes (log2)
system.mem_ctrls.writePktSize::0                    0                       # Write request sizes (log2)
system.mem_ctrls.writePktSize::1                    0                       # Write request sizes (log2)
system.mem_ctrls.writePktSize::2                    0                       # Write request sizes (log2)
system.mem_ctrls.writePktSize::3                    0                       # Write request sizes (log2)
system.mem_ctrls.writePktSize::4                    0                       # Write request sizes (log2)
system.mem_ctrls.writePktSize::5                    0                       # Write request sizes (log2)
system.mem_ctrls.writePktSize::6                 1480                       # Write request sizes (log2)
system.mem_ctrls.rdQLenPdf::0                    2835                       # What read queue length does an incoming req see
system.mem_ctrls.rdQLenPdf::1                    2890                       # What read queue length does an incoming req see
system.mem_ctrls.rdQLenPdf::2                    2309                       # What read queue length does an incoming req see
system.mem_ctrls.rdQLenPdf::3                    2255                       # What read queue length does an incoming req see
system.mem_ctrls.rdQLenPdf::4                       2                       # What read queue length does an incoming req see
system.mem_ctrls.rdQLenPdf::5                       1                       # What read queue length does an incoming req see
system.mem_ctrls.rdQLenPdf::6                       0                       # What read queue length does an incoming req see
system.mem_ctrls.rdQLenPdf::7                       0                       # What read queue length does an incoming req see
system.mem_ctrls.rdQLenPdf::8                       0                       # What read queue length does an incoming req see
system.mem_ctrls.rdQLenPdf::9                       0                       # What read queue length does an incoming req see
system.mem_ctrls.rdQLenPdf::10                      0                       # What read queue length does an incoming req see
system.mem_ctrls.rdQLenPdf::11                      0                       # What read queue length does an incoming req see
system.mem_ctrls.rdQLenPdf::12                      0                       # What read queue length does an incoming req see
system.mem_ctrls.rdQLenPdf::13                      0                       # What read queue length does an incoming req see
system.mem_ctrls.rdQLenPdf::14                      0                       # What read queue length does an incoming req see
system.mem_ctrls.rdQLenPdf::15                      0                       # What read queue length does an incoming req see
system.mem_ctrls.rdQLenPdf::16                      0                       # What read queue length does an incoming req see
system.mem_ctrls.rdQLenPdf::17                      0                       # What read queue length does an incoming req see
system.mem_ctrls.rdQLenPdf::18                      0                       # What read queue length does an incoming req see
system.mem_ctrls.rdQLenPdf::19                      0                       # What read queue length does an incoming req see
system.mem_ctrls.rdQLenPdf::20                      0                       # What read queue length does an incoming req see
system.mem_ctrls.rdQLenPdf::21                      0                       # What read queue length does an incoming req see
system.mem_ctrls.rdQLenPdf::22                      0                       # What read queue length does an incoming req see
system.mem_ctrls.rdQLenPdf::23                      0                       # What read queue length does an incoming req see
system.mem_ctrls.rdQLenPdf::24                      0                       # What read queue length does an incoming req see
system.mem_ctrls.rdQLenPdf::25                      0                       # What read queue length does an incoming req see
system.mem_ctrls.rdQLenPdf::26                      0                       # What read queue length does an incoming req see
system.mem_ctrls.rdQLenPdf::27                      0                       # What read queue length does an incoming req see
system.mem_ctrls.rdQLenPdf::28                      0                       # What read queue length does an incoming req see
system.mem_ctrls.rdQLenPdf::29                      0                       # What read queue length does an incoming req see
system.mem_ctrls.rdQLenPdf::30                      0                       # What read queue length does an incoming req see
system.mem_ctrls.rdQLenPdf::31                      0                       # What read queue length does an incoming req see
system.mem_ctrls.wrQLenPdf::0                       1                       # What write queue length does an incoming req see
system.mem_ctrls.wrQLenPdf::1                       1                       # What write queue length does an incoming req see
system.mem_ctrls.wrQLenPdf::2                       1                       # What write queue length does an incoming req see
system.mem_ctrls.wrQLenPdf::3                       1                       # What write queue length does an incoming req see
system.mem_ctrls.wrQLenPdf::4                       1                       # What write queue length does an incoming req see
system.mem_ctrls.wrQLenPdf::5                       1                       # What write queue length does an incoming req see
system.mem_ctrls.wrQLenPdf::6                       1                       # What write queue length does an incoming req see
system.mem_ctrls.wrQLenPdf::7                       1                       # What write queue length does an incoming req see
system.mem_ctrls.wrQLenPdf::8                       1                       # What write queue length does an incoming req see
system.mem_ctrls.wrQLenPdf::9                       1                       # What write queue length does an incoming req see
system.mem_ctrls.wrQLenPdf::10                      1                       # What write queue length does an incoming req see
system.mem_ctrls.wrQLenPdf::11                      1                       # What write queue length does an incoming req see
system.mem_ctrls.wrQLenPdf::12                      1                       # What write queue length does an incoming req see
system.mem_ctrls.wrQLenPdf::13                      1                       # What write queue length does an incoming req see
system.mem_ctrls.wrQLenPdf::14                      1                       # What write queue length does an incoming req see
system.mem_ctrls.wrQLenPdf::15                      1                       # What write queue length does an incoming req see
system.mem_ctrls.wrQLenPdf::16                      1                       # What write queue length does an incoming req see
system.mem_ctrls.wrQLenPdf::17                      1                       # What write queue length does an incoming req see
system.mem_ctrls.wrQLenPdf::18                      1                       # What write queue length does an incoming req see
system.mem_ctrls.wrQLenPdf::19                     61                       # What write queue length does an incoming req see
system.mem_ctrls.wrQLenPdf::20                     91                       # What write queue length does an incoming req see
system.mem_ctrls.wrQLenPdf::21                     92                       # What write queue length does an incoming req see
system.mem_ctrls.wrQLenPdf::22                     93                       # What write queue length does an incoming req see
system.mem_ctrls.wrQLenPdf::23                     92                       # What write queue length does an incoming req see
system.mem_ctrls.wrQLenPdf::24                     91                       # What write queue length does an incoming req see
system.mem_ctrls.wrQLenPdf::25                    139                       # What write queue length does an incoming req see
system.mem_ctrls.wrQLenPdf::26                    167                       # What write queue length does an incoming req see
system.mem_ctrls.wrQLenPdf::27                    119                       # What write queue length does an incoming req see
system.mem_ctrls.wrQLenPdf::28                    103                       # What write queue length does an incoming req see
system.mem_ctrls.wrQLenPdf::29                    105                       # What write queue length does an incoming req see
system.mem_ctrls.wrQLenPdf::30                     93                       # What write queue length does an incoming req see
system.mem_ctrls.wrQLenPdf::31                     91                       # What write queue length does an incoming req see
system.mem_ctrls.wrQLenPdf::32                     91                       # What write queue length does an incoming req see
system.mem_ctrls.wrQLenPdf::33                     31                       # What write queue length does an incoming req see
system.mem_ctrls.wrQLenPdf::34                      1                       # What write queue length does an incoming req see
system.mem_ctrls.wrQLenPdf::35                      1                       # What write queue length does an incoming req see
system.mem_ctrls.wrQLenPdf::36                      0                       # What write queue length does an incoming req see
system.mem_ctrls.wrQLenPdf::37                      0                       # What write queue length does an incoming req see
system.mem_ctrls.wrQLenPdf::38                      0                       # What write queue length does an incoming req see
system.mem_ctrls.wrQLenPdf::39                      0                       # What write queue length does an incoming req see
system.mem_ctrls.wrQLenPdf::40                      0                       # What write queue length does an incoming req see
system.mem_ctrls.wrQLenPdf::41                      0                       # What write queue length does an incoming req see
system.mem_ctrls.wrQLenPdf::42                      0                       # What write queue length does an incoming req see
system.mem_ctrls.wrQLenPdf::43                      0                       # What write queue length does an incoming req see
system.mem_ctrls.wrQLenPdf::44                      0                       # What write queue length does an incoming req see
system.mem_ctrls.wrQLenPdf::45                      0                       # What write queue length does an incoming req see
system.mem_ctrls.wrQLenPdf::46                      0                       # What write queue length does an incoming req see
system.mem_ctrls.wrQLenPdf::47                      0                       # What write queue length does an incoming req see
system.mem_ctrls.wrQLenPdf::48                      0                       # What write queue length does an incoming req see
system.mem_ctrls.wrQLenPdf::49                      0                       # What write queue length does an incoming req see
system.mem_ctrls.wrQLenPdf::50                      0                       # What write queue length does an incoming req see
system.mem_ctrls.wrQLenPdf::51                      0                       # What write queue length does an incoming req see
system.mem_ctrls.wrQLenPdf::52                      0                       # What write queue length does an incoming req see
system.mem_ctrls.wrQLenPdf::53                      0                       # What write queue length does an incoming req see
system.mem_ctrls.wrQLenPdf::54                      0                       # What write queue length does an incoming req see
system.mem_ctrls.wrQLenPdf::55                      0                       # What write queue length does an incoming req see
system.mem_ctrls.wrQLenPdf::56                      0                       # What write queue length does an incoming req see
system.mem_ctrls.wrQLenPdf::57                      0                       # What write queue length does an incoming req see
system.mem_ctrls.wrQLenPdf::58                      0                       # What write queue length does an incoming req see
system.mem_ctrls.wrQLenPdf::59                      0                       # What write queue length does an incoming req see
system.mem_ctrls.wrQLenPdf::60                      0                       # What write queue length does an incoming req see
system.mem_ctrls.wrQLenPdf::61                      0                       # What write queue length does an incoming req see
system.mem_ctrls.wrQLenPdf::62                      0                       # What write queue length does an incoming req see
system.mem_ctrls.wrQLenPdf::63                      0                       # What write queue length does an incoming req see
system.mem_ctrls.bytesPerActivate::samples          832                       # Bytes accessed per row activation
system.mem_ctrls.bytesPerActivate::mean    901.615385                       # Bytes accessed per row activation
system.mem_ctrls.bytesPerActivate::gmean   813.777755                       # Bytes accessed per row activation
system.mem_ctrls.bytesPerActivate::stdev   273.018843                       # Bytes accessed per row activation
system.mem_ctrls.bytesPerActivate::0-127            3      0.36%      0.36% # Bytes accessed per row activation
system.mem_ctrls.bytesPerActivate::128-255           42      5.05%      5.41% # Bytes accessed per row activation
system.mem_ctrls.bytesPerActivate::256-383           33      3.97%      9.38% # Bytes accessed per row activation
system.mem_ctrls.bytesPerActivate::384-511           27      3.25%     12.62% # Bytes accessed per row activation
system.mem_ctrls.bytesPerActivate::512-639           15      1.80%     14.42% # Bytes accessed per row activation
system.mem_ctrls.bytesPerActivate::640-767           16      1.92%     16.35% # Bytes accessed per row activation
system.mem_ctrls.bytesPerActivate::768-895           15      1.80%     18.15% # Bytes accessed per row activation
system.mem_ctrls.bytesPerActivate::896-1023            9      1.08%     19.23% # Bytes accessed per row activation
system.mem_ctrls.bytesPerActivate::1024-1151          672     80.77%    100.00% # Bytes accessed per row activation
system.mem_ctrls.bytesPerActivate::total          832                       # Bytes accessed per row activation
system.mem_ctrls.rdPerTurnAround::samples           91                       # Reads before turning the bus around for writes
system.mem_ctrls.rdPerTurnAround::mean     113.098901                       # Reads before turning the bus around for writes
system.mem_ctrls.rdPerTurnAround::gmean     17.191935                       # Reads before turning the bus around for writes
system.mem_ctrls.rdPerTurnAround::stdev    925.840604                       # Reads before turning the bus around for writes
system.mem_ctrls.rdPerTurnAround::0-511            90     98.90%     98.90% # Reads before turning the bus around for writes
system.mem_ctrls.rdPerTurnAround::8704-9215            1      1.10%    100.00% # Reads before turning the bus around for writes
system.mem_ctrls.rdPerTurnAround::total            91                       # Reads before turning the bus around for writes
system.mem_ctrls.wrPerTurnAround::samples           90                       # Writes before turning the bus around for reads
system.mem_ctrls.wrPerTurnAround::mean      16.055556                       # Writes before turning the bus around for reads
system.mem_ctrls.wrPerTurnAround::gmean     16.048417                       # Writes before turning the bus around for reads
system.mem_ctrls.wrPerTurnAround::stdev      0.527046                       # Writes before turning the bus around for reads
system.mem_ctrls.wrPerTurnAround::16               89     98.89%     98.89% # Writes before turning the bus around for reads
system.mem_ctrls.wrPerTurnAround::21                1      1.11%    100.00% # Writes before turning the bus around for reads
system.mem_ctrls.wrPerTurnAround::total            90                       # Writes before turning the bus around for reads
system.mem_ctrls.bytesReadDRAM                 658688                       # Total number of bytes read from DRAM
system.mem_ctrls.bytesReadWrQ                       0                       # Total number of bytes read from write queue
system.mem_ctrls.bytesWritten                   92864                       # Total number of bytes written to DRAM
[...]
system.cpu.icache.ReadReq_miss_rate::total     0.013416                       # miss rate for ReadReq accesses
system.cpu.icache.ReadReq_avg_miss_latency::.cpu.inst 82434.042553                       # average ReadReq miss latency
system.cpu.icache.ReadReq_avg_miss_latency::total 82434.042553                       # average ReadReq miss latency
system.cpu.icache.ReadReq_mshr_misses::.cpu.inst          235                       # number of ReadReq MSHR misses
system.cpu.icache.ReadReq_mshr_misses::total          235                       # number of ReadReq MSHR misses
system.cpu.icache.ReadReq_mshr_miss_latency::.cpu.inst     19137000                       # number of ReadReq MSHR miss cycles
system.cpu.icache.ReadReq_mshr_miss_latency::total     19137000                       # number of ReadReq MSHR miss cycles
system.cpu.icache.ReadReq_mshr_miss_rate::.cpu.inst     0.013416                       # mshr miss rate for ReadReq accesses
system.cpu.icache.ReadReq_mshr_miss_rate::total     0.013416                       # mshr miss rate for ReadReq accesses
system.cpu.icache.ReadReq_avg_mshr_miss_latency::.cpu.inst 81434.042553                       # average ReadReq mshr miss latency
system.cpu.icache.ReadReq_avg_mshr_miss_latency::total 81434.042553                       # average ReadReq mshr miss latency
system.cpu.icache.tags.pwrStateResidencyTicks::UNDEFINED    269583500                       # Cumulative time (in ticks) in various power states
system.cpu.icache.tags.tagsinuse           184.797196                       # Cycle average of tags in use
system.cpu.icache.tags.total_refs               17516                       # Total number of references to valid blocks.
system.cpu.icache.tags.sampled_refs               235                       # Sample count of references to valid blocks.
system.cpu.icache.tags.avg_refs             74.536170                       # Average number of references to valid blocks.
system.cpu.icache.tags.warmup_cycle             92500                       # Cycle when the warmup percentage was hit.
system.cpu.icache.tags.occ_blocks::.cpu.inst   184.797196                       # Average occupied blocks per requestor
system.cpu.icache.tags.occ_percent::.cpu.inst     0.721864                       # Average percentage of cache occupancy
system.cpu.icache.tags.occ_percent::total     0.721864                       # Average percentage of cache occupancy
system.cpu.icache.tags.occ_task_id_blocks::1024          194                       # Occupied blocks per task id
system.cpu.icache.tags.age_task_id_blocks_1024::2          194                       # Occupied blocks per task id
system.cpu.icache.tags.occ_task_id_percent::1024     0.757812                       # Percentage of cache occupancy per task id
system.cpu.icache.tags.tag_accesses             70299                       # Number of tag accesses
system.cpu.icache.tags.data_accesses            70299                       # Number of data accesses
system.cpu.dtb.walker.pwrStateResidencyTicks::UNDEFINED    269583500                       # Cumulative time (in ticks) in various power states
system.cpu.dtb.stage2_mmu.stage2_tlb.walker.pwrStateResidencyTicks::UNDEFINED    269583500                       # Cumulative time (in ticks) in various power states
system.cpu.dcache.pwrStateResidencyTicks::UNDEFINED    269583500                       # Cumulative time (in ticks) in various power states
system.cpu.dcache.demand_hits::.cpu.data        41457                       # number of demand (read+write) hits
system.cpu.dcache.demand_hits::total            41457                       # number of demand (read+write) hits
system.cpu.dcache.overall_hits::.cpu.data        41479                       # number of overall hits
system.cpu.dcache.overall_hits::total           41479                       # number of overall hits
system.cpu.dcache.demand_misses::.cpu.data         4967                       # number of demand (read+write) misses
system.cpu.dcache.demand_misses::total           4967                       # number of demand (read+write) misses
system.cpu.dcache.overall_misses::.cpu.data         4978                       # number of overall misses
system.cpu.dcache.overall_misses::total          4978                       # number of overall misses
system.cpu.dcache.demand_miss_latency::.cpu.data    428352000                       # number of demand (read+write) miss cycles
system.cpu.dcache.demand_miss_latency::total    428352000                       # number of demand (read+write) miss cycles
system.cpu.dcache.overall_miss_latency::.cpu.data    428352000                       # number of overall miss cycles
system.cpu.dcache.overall_miss_latency::total    428352000                       # number of overall miss cycles
system.cpu.dcache.demand_accesses::.cpu.data        46424                       # number of demand (read+write) accesses
system.cpu.dcache.demand_accesses::total        46424                       # number of demand (read+write) accesses
system.cpu.dcache.overall_accesses::.cpu.data        46457                       # number of overall (read+write) accesses
system.cpu.dcache.overall_accesses::total        46457                       # number of overall (read+write) accesses
system.cpu.dcache.demand_miss_rate::.cpu.data     0.106992                       # miss rate for demand accesses
system.cpu.dcache.demand_miss_rate::total     0.106992                       # miss rate for demand accesses
system.cpu.dcache.overall_miss_rate::.cpu.data     0.107153                       # miss rate for overall accesses
system.cpu.dcache.overall_miss_rate::total     0.107153                       # miss rate for overall accesses
system.cpu.dcache.demand_avg_miss_latency::.cpu.data 86239.581236                       # average overall miss latency
system.cpu.dcache.demand_avg_miss_latency::total 86239.581236                       # average overall miss latency
system.cpu.dcache.overall_avg_miss_latency::.cpu.data 86049.015669                       # average overall miss latency
system.cpu.dcache.overall_avg_miss_latency::total 86049.015669                       # average overall miss latency
system.cpu.dcache.blocked_cycles::no_mshrs            0                       # number of cycles access was blocked
system.cpu.dcache.blocked_cycles::no_targets            0                       # number of cycles access was blocked
system.cpu.dcache.blocked::no_mshrs                 0                       # number of cycles access was blocked
system.cpu.dcache.blocked::no_targets               0                       # number of cycles access was blocked
system.cpu.dcache.avg_blocked_cycles::no_mshrs          nan                       # average number of cycles each access was blocked
system.cpu.dcache.avg_blocked_cycles::no_targets          nan                       # average number of cycles each access was blocked
system.cpu.dcache.writebacks::.writebacks         4581                       # number of writebacks
system.cpu.dcache.writebacks::total              4581                       # number of writebacks
system.cpu.dcache.demand_mshr_hits::.cpu.data           31                       # number of demand (read+write) MSHR hits
system.cpu.dcache.demand_mshr_hits::total           31                       # number of demand (read+write) MSHR hits
system.cpu.dcache.overall_mshr_hits::.cpu.data           31                       # number of overall MSHR hits
system.cpu.dcache.overall_mshr_hits::total           31                       # number of overall MSHR hits
system.cpu.dcache.demand_mshr_misses::.cpu.data         4936                       # number of demand (read+write) MSHR misses
system.cpu.dcache.demand_mshr_misses::total         4936                       # number of demand (read+write) MSHR misses
system.cpu.dcache.overall_mshr_misses::.cpu.data         4942                       # number of overall MSHR misses
system.cpu.dcache.overall_mshr_misses::total         4942                       # number of overall MSHR misses
system.cpu.dcache.demand_mshr_miss_latency::.cpu.data    420880000                       # number of demand (read+write) MSHR miss cycles
system.cpu.dcache.demand_mshr_miss_latency::total    420880000                       # number of demand (read+write) MSHR miss cycles
system.cpu.dcache.overall_mshr_miss_latency::.cpu.data    421405500                       # number of overall MSHR miss cycles
system.cpu.dcache.overall_mshr_miss_latency::total    421405500                       # number of overall MSHR miss cycles
system.cpu.dcache.demand_mshr_miss_rate::.cpu.data     0.106324                       # mshr miss rate for demand accesses
system.cpu.dcache.demand_mshr_miss_rate::total     0.106324                       # mshr miss rate for demand accesses
system.cpu.dcache.overall_mshr_miss_rate::.cpu.data     0.106378                       # mshr miss rate for overall accesses
system.cpu.dcache.overall_mshr_miss_rate::total     0.106378                       # mshr miss rate for overall accesses
system.cpu.dcache.demand_avg_mshr_miss_latency::.cpu.data 85267.423015                       # average overall mshr miss latency
system.cpu.dcache.demand_avg_mshr_miss_latency::total 85267.423015                       # average overall mshr miss latency
system.cpu.dcache.overall_avg_mshr_miss_latency::.cpu.data 85270.234723                       # average overall mshr miss latency
system.cpu.dcache.overall_avg_mshr_miss_latency::total 85270.234723                       # average overall mshr miss latency
system.cpu.dcache.replacements                   4588                       # number of replacements
system.cpu.dcache.ReadReq_hits::.cpu.data        35255                       # number of ReadReq hits
system.cpu.dcache.ReadReq_hits::total           35255                       # number of ReadReq hits
system.cpu.dcache.ReadReq_misses::.cpu.data           75                       # number of ReadReq misses
system.cpu.dcache.ReadReq_misses::total            75                       # number of ReadReq misses
system.cpu.dcache.ReadReq_miss_latency::.cpu.data      5962500                       # number of ReadReq miss cycles
system.cpu.dcache.ReadReq_miss_latency::total      5962500                       # number of ReadReq miss cycles
system.cpu.dcache.ReadReq_accesses::.cpu.data        35330                       # number of ReadReq accesses(hits+misses)
system.cpu.dcache.ReadReq_accesses::total        35330                       # number of ReadReq accesses(hits+misses)
system.cpu.dcache.ReadReq_miss_rate::.cpu.data     0.002123                       # miss rate for ReadReq accesses
system.cpu.dcache.ReadReq_miss_rate::total     0.002123                       # miss rate for ReadReq accesses
system.cpu.dcache.ReadReq_avg_miss_latency::.cpu.data        79500                       # average ReadReq miss latency
system.cpu.dcache.ReadReq_avg_miss_latency::total        79500                       # average ReadReq miss latency
system.cpu.dcache.ReadReq_mshr_hits::.cpu.data            8                       # number of ReadReq MSHR hits
system.cpu.dcache.ReadReq_mshr_hits::total            8                       # number of ReadReq MSHR hits
system.cpu.dcache.ReadReq_mshr_misses::.cpu.data           67                       # number of ReadReq MSHR misses
system.cpu.dcache.ReadReq_mshr_misses::total           67                       # number of ReadReq MSHR misses
system.cpu.dcache.ReadReq_mshr_miss_latency::.cpu.data      5198500                       # number of ReadReq MSHR miss cycles
system.cpu.dcache.ReadReq_mshr_miss_latency::total      5198500                       # number of ReadReq MSHR miss cycles
system.cpu.dcache.ReadReq_mshr_miss_rate::.cpu.data     0.001896                       # mshr miss rate for ReadReq accesses
system.cpu.dcache.ReadReq_mshr_miss_rate::total     0.001896                       # mshr miss rate for ReadReq accesses
system.cpu.dcache.ReadReq_avg_mshr_miss_latency::.cpu.data 77589.552239                       # average ReadReq mshr miss latency
system.cpu.dcache.ReadReq_avg_mshr_miss_latency::total 77589.552239                       # average ReadReq mshr miss latency
system.cpu.dcache.WriteReq_hits::.cpu.data         6202                       # number of WriteReq hits
system.cpu.dcache.WriteReq_hits::total           6202                       # number of WriteReq hits
system.cpu.dcache.WriteReq_misses::.cpu.data         4892                       # number of WriteReq misses
system.cpu.dcache.WriteReq_misses::total         4892                       # number of WriteReq misses
system.cpu.dcache.WriteReq_miss_latency::.cpu.data    422389500                       # number of WriteReq miss cycles
system.cpu.dcache.WriteReq_miss_latency::total    422389500                       # number of WriteReq miss cycles
system.cpu.dcache.WriteReq_accesses::.cpu.data        11094                       # number of WriteReq accesses(hits+misses)
system.cpu.dcache.WriteReq_accesses::total        11094                       # number of WriteReq accesses(hits+misses)
system.cpu.dcache.WriteReq_miss_rate::.cpu.data     0.440959                       # miss rate for WriteReq accesses
system.cpu.dcache.WriteReq_miss_rate::total     0.440959                       # miss rate for WriteReq accesses
system.cpu.dcache.WriteReq_avg_miss_latency::.cpu.data 86342.906787                       # average WriteReq miss latency
system.cpu.dcache.WriteReq_avg_miss_latency::total 86342.906787                       # average WriteReq miss latency
system.cpu.dcache.WriteReq_mshr_hits::.cpu.data           23                       # number of WriteReq MSHR hits
system.cpu.dcache.WriteReq_mshr_hits::total           23                       # number of WriteReq MSHR hits
system.cpu.dcache.WriteReq_mshr_misses::.cpu.data         4869                       # number of WriteReq MSHR misses
system.cpu.dcache.WriteReq_mshr_misses::total         4869                       # number of WriteReq MSHR misses
system.cpu.dcache.WriteReq_mshr_miss_latency::.cpu.data    415681500                       # number of WriteReq MSHR miss cycles
system.cpu.dcache.WriteReq_mshr_miss_latency::total    415681500                       # number of WriteReq MSHR miss cycles
system.cpu.dcache.WriteReq_mshr_miss_rate::.cpu.data     0.438886                       # mshr miss rate for WriteReq accesses
system.cpu.dcache.WriteReq_mshr_miss_rate::total     0.438886                       # mshr miss rate for WriteReq accesses
system.cpu.dcache.WriteReq_avg_mshr_miss_latency::.cpu.data 85373.074553                       # average WriteReq mshr miss latency
system.cpu.dcache.WriteReq_avg_mshr_miss_latency::total 85373.074553                       # average WriteReq mshr miss latency
system.cpu.dcache.SoftPFReq_hits::.cpu.data           22                       # number of SoftPFReq hits
system.cpu.dcache.SoftPFReq_hits::total            22                       # number of SoftPFReq hits
system.cpu.dcache.SoftPFReq_misses::.cpu.data           11                       # number of SoftPFReq misses
system.cpu.dcache.SoftPFReq_misses::total           11                       # number of SoftPFReq misses
system.cpu.dcache.SoftPFReq_accesses::.cpu.data           33                       # number of SoftPFReq accesses(hits+misses)
system.cpu.dcache.SoftPFReq_accesses::total           33                       # number of SoftPFReq accesses(hits+misses)
system.cpu.dcache.SoftPFReq_miss_rate::.cpu.data     0.333333                       # miss rate for SoftPFReq accesses
system.cpu.dcache.SoftPFReq_miss_rate::total     0.333333                       # miss rate for SoftPFReq accesses
system.cpu.dcache.SoftPFReq_mshr_misses::.cpu.data            6                       # number of SoftPFReq MSHR misses
system.cpu.dcache.SoftPFReq_mshr_misses::total            6                       # number of SoftPFReq MSHR misses
system.cpu.dcache.SoftPFReq_mshr_miss_latency::.cpu.data       525500                       # number of SoftPFReq MSHR miss cycles
system.cpu.dcache.SoftPFReq_mshr_miss_latency::total       525500                       # number of SoftPFReq MSHR miss cycles
system.cpu.dcache.SoftPFReq_mshr_miss_rate::.cpu.data     0.181818                       # mshr miss rate for SoftPFReq accesses
system.cpu.dcache.SoftPFReq_mshr_miss_rate::total     0.181818                       # mshr miss rate for SoftPFReq accesses
system.cpu.dcache.SoftPFReq_avg_mshr_miss_latency::.cpu.data 87583.333333                       # average SoftPFReq mshr miss latency
system.cpu.dcache.SoftPFReq_avg_mshr_miss_latency::total 87583.333333                       # average SoftPFReq mshr miss latency
system.cpu.dcache.LoadLockedReq_hits::.cpu.data           10                       # number of LoadLockedReq hits
system.cpu.dcache.LoadLockedReq_hits::total           10                       # number of LoadLockedReq hits
system.cpu.dcache.LoadLockedReq_accesses::.cpu.data           10                       # number of LoadLockedReq accesses(hits+misses)
system.cpu.dcache.LoadLockedReq_accesses::total           10                       # number of LoadLockedReq accesses(hits+misses)
system.cpu.dcache.StoreCondReq_hits::.cpu.data           10                       # number of StoreCondReq hits
system.cpu.dcache.StoreCondReq_hits::total           10                       # number of StoreCondReq hits
system.cpu.dcache.StoreCondReq_accesses::.cpu.data           10                       # number of StoreCondReq accesses(hits+misses)
system.cpu.dcache.StoreCondReq_accesses::total           10                       # number of StoreCondReq accesses(hits+misses)
system.cpu.dcache.tags.pwrStateResidencyTicks::UNDEFINED    269583500                       # Cumulative time (in ticks) in various power states
system.cpu.dcache.tags.tagsinuse           315.271615                       # Cycle average of tags in use
system.cpu.dcache.tags.total_refs               46440                       # Total number of references to valid blocks.
system.cpu.dcache.tags.sampled_refs              4941                       # Sample count of references to valid blocks.
system.cpu.dcache.tags.avg_refs              9.398907                       # Average number of references to valid blocks.
system.cpu.dcache.tags.warmup_cycle            186500                       # Cycle when the warmup percentage was hit.
system.cpu.dcache.tags.occ_blocks::.cpu.data   315.271615                       # Average occupied blocks per requestor
system.cpu.dcache.tags.occ_percent::.cpu.data     0.153941                       # Average percentage of cache occupancy
system.cpu.dcache.tags.occ_percent::total     0.153941                       # Average percentage of cache occupancy
system.cpu.dcache.tags.occ_task_id_blocks::1024          353                       # Occupied blocks per task id
system.cpu.dcache.tags.age_task_id_blocks_1024::0          172                       # Occupied blocks per task id
system.cpu.dcache.tags.age_task_id_blocks_1024::1           84                       # Occupied blocks per task id
system.cpu.dcache.tags.age_task_id_blocks_1024::2           97                       # Occupied blocks per task id
system.cpu.dcache.tags.occ_task_id_percent::1024     0.172363                       # Percentage of cache occupancy per task id
system.cpu.dcache.tags.tag_accesses             51418                       # Number of tag accesses
system.cpu.dcache.tags.data_accesses            51418                       # Number of data accesses
system.cpu.itb.walker.pwrStateResidencyTicks::UNDEFINED    269583500                       # Cumulative time (in ticks) in various power states
system.cpu.itb.stage2_mmu.stage2_tlb.walker.pwrStateResidencyTicks::UNDEFINED    269583500                       # Cumulative time (in ticks) in various power states

---------- End Simulation Statistics   ----------
